version 2
run Second-n5-14-20191016-17:04:48-14972
attr configname Second-n5
attr datetime 20191016-17:04:48
attr experiment Second-n5
attr inifile omnetpp.ini
attr iterationvars ""
attr iterationvarsf ""
attr measurement ""
attr network org.omnetpp.queueing.Pizza
attr processid 14972
attr repetition 14
attr replication ""
attr resultdir results
attr runnumber 14
attr seedset 14
param **.PS.maxInventoriedPS 5
param **.U1.interArrivalTime exponential(3s)
param **.U2.interArrivalTime exponential(5s)
param **.PS.serviceTimeForInventoryU1 exponential(1.0s)
param **.PS.serviceTimeForInventoryU2 exponential(1.2s)
param **.PS.serviceTimeDirectU1 exponential(1.4s)
param **.PS.serviceTimeDirectU2 exponential(1.4s)
param **.PS.probabilityProducing 0.7
param **.CS.serviceTimeU1 exponential(1.1s)
param **.CS.serviceTimeU2 exponential(1.4s)

vector 0 Pizza.EntryQueueU1 queueLength:vector ETV
attr interpolationmode sample-hold
attr title "queue length, vector"
vector 1 Pizza.CS queueLength:vector ETV
attr interpolationmode sample-hold
attr title "queue length, vector"
vector 2 Pizza.EntryQueueU2 queueLength:vector ETV
attr interpolationmode sample-hold
attr title "queue length, vector"
vector 3 Pizza.sink lifeTime:vector ETV
attr interpolationmode none
attr title "lifetime of arrived jobs, vector"
attr unit s
vector 4 Pizza.sink lifeTimeU1:vector ETV
attr interpolationmode none
attr title "lifetime of arrived jobs, vector"
attr unit s
vector 5 Pizza.sink lifeTimeU2:vector ETV
attr interpolationmode none
attr title "lifetime of arrived jobs, vector"
attr unit s
0	0	0	0
0	61	19.864288770696	1
0	62	20.581764436503	0
0	68	20.788263961668	1
0	69	21.009335433114	0
0	163	53.137131477294	1
0	165	54.350018071788	2
0	166	54.36104164091	1
0	173	55.975614749179	0
0	180	57.261231199309	1
0	182	57.543825054176	2
0	183	58.421011889674	1
0	189	59.225303384524	2
0	191	59.454558776752	3
0	192	59.456386982717	2
0	199	59.65512996969	1
0	206	60.501928309036	2
0	207	60.607421071346	1
0	212	61.202036415125	0
0	218	61.207127230007	1
0	220	61.467297092319	2
0	224	62.595326244037	1
0	229	62.68067962781	0
0	235	62.934907056383	1
0	236	63.036310719268	0
0	248	65.030169782145	1
0	250	65.074285279443	2
0	252	66.117880891197	1
0	257	66.205028468505	0
0	295	76.549579667407	1
0	299	77.663789706204	2
0	300	78.899527602391	1
0	305	79.153274174061	0
0	320	82.126269120924	1
0	321	82.150374992933	0
0	341	85.44165328513	1
0	343	86.02812729219	2
0	348	86.714522060063	3
0	351	89.324467812582	2
0	356	89.334960415247	1
0	361	89.860459519457	0
0	373	91.031438156129	1
0	374	91.146938754745	0
0	431	100.962663667721	1
0	434	101.224039897299	0
0	462	110.522250345936	1
0	463	110.647864644805	0
0	469	110.718327947443	1
0	471	111.006140588277	2
0	473	111.50826491427	1
0	481	113.01492546199	2
0	482	113.137614220121	1
0	488	113.998483164676	0
0	503	116.073844745864	1
0	512	121.518308524809	0
0	533	131.42970551167	1
0	538	134.270430189903	0
0	545	137.377373354245	1
0	546	137.448208658247	0
0	586	142.972359671481	1
0	587	143.976625424735	0
0	603	148.754625520718	1
0	604	149.079212347018	0
0	624	151.776767634515	1
0	626	151.838540789282	2
0	628	152.156120378895	3
0	631	154.781069191372	2
0	639	157.848395547406	1
0	644	158.406047977778	0
0	680	163.911680014981	1
0	684	164.373038037601	2
0	691	165.742845108152	1
0	696	166.389342196476	0
0	702	166.513608989767	1
0	703	166.525606614415	0
0	714	167.36283219514	1
0	717	167.841725100387	2
0	718	168.532251869755	1
0	726	170.075596301826	0
0	752	176.772290638877	1
0	754	178.774665871595	0
0	782	185.454439006215	1
0	785	186.830584823599	2
0	790	188.347799365809	1
0	796	189.315407797321	0
0	815	192.179082957669	1
0	816	193.686659270421	0
0	901	218.059008508603	1
0	903	218.524262616251	2
0	904	219.176152414471	1
0	909	220.462830613047	0
0	925	222.079065310465	1
0	926	222.730039879699	0
0	953	230.892721947461	1
0	955	231.905613585898	2
0	956	233.458632568374	1
0	962	234.1660846984	2
0	963	234.564788670545	1
0	968	234.959611821047	0
0	996	239.522964689641	1
0	997	240.219465629942	0
0	1006	242.757803059575	1
0	1008	244.789837875537	2
0	1010	245.613121105372	3
0	1014	247.613847696588	4
0	1015	247.91995657185	3
0	1020	248.342082050297	2
0	1025	249.257632293575	1
0	1031	250.620669253069	0
0	1079	262.680085872764	1
0	1081	263.298537445695	2
0	1083	263.880208230502	3
0	1085	267.266027325682	4
0	1087	267.684275819254	5
0	1091	272.287094144277	6
0	1097	274.612945524056	5
0	1105	276.802850411957	6
0	1107	277.12278785826	5
0	1112	277.872271824609	4
0	1117	278.398268255257	3
0	1125	279.495679776882	4
0	1131	282.408802728267	5
0	1132	283.304430724103	4
0	1137	283.398260699535	3
0	1143	283.83149332187	4
0	1144	284.211477101779	3
0	1151	286.079803966822	2
0	1156	286.630880871781	1
0	1162	287.062106541755	2
0	1164	287.206384341856	3
0	1165	287.348466333108	2
0	1170	287.589557336753	1
0	1175	287.830967754422	0
0	1179	287.989059478276	1
0	1187	291.188710435366	0
0	1244	307.501257169074	1
0	1245	307.540999411039	0
0	1259	309.871211453349	1
0	1260	310.663454416573	0
0	1274	311.348089401771	1
0	1277	314.723533768396	0
0	1291	316.078926829333	1
0	1296	317.739197349246	2
0	1300	320.919007020436	3
0	1301	321.281063688549	2
0	1307	321.530784268766	3
0	1308	321.749124147359	2
0	1313	322.120034610678	1
0	1319	322.928752539846	0
0	1363	331.400196975962	1
0	1366	332.161411270793	2
0	1368	332.33217848439	3
0	1369	332.490307533277	2
0	1375	333.36822566912	1
0	1381	334.328176063852	0
0	1450	344.737363600447	1
0	1451	344.838635754927	0
0	1460	346.209019181075	1
0	1463	347.88678561825	0
0	1499	365.196059282289	1
0	1502	367.757977128225	0
0	1527	370.324186867185	1
0	1529	370.399921262524	2
0	1530	371.200408844242	1
0	1535	371.451349765093	0
0	1549	374.047150288719	1
0	1551	374.070133009352	2
0	1552	376.216124346021	1
0	1556	376.536195919145	2
0	1558	376.822479693172	3
0	1562	377.707960235257	4
0	1565	377.881513728905	5
0	1568	379.021192388836	4
0	1575	379.662780145904	3
0	1583	381.424698366423	4
0	1584	381.481330721093	3
0	1589	381.747013799081	2
0	1593	381.911495091149	3
0	1597	383.770320125541	4
0	1602	384.919252825289	3
0	1608	385.074804851399	4
0	1609	385.496355827841	3
0	1616	386.353241477664	2
0	1622	388.03024674822	3
0	1625	389.315065498398	2
0	1633	396.087355284828	1
0	1644	401.109842225627	0
0	1690	408.568644823049	1
0	1691	408.740635605537	0
0	1723	420.032712162222	1
0	1724	420.88722453207	0
0	1747	427.722715940563	1
0	1748	427.965527494307	0
0	1827	451.283396215898	1
0	1830	452.010808615553	0
0	1866	464.265053953724	1
0	1870	466.129359486139	0
0	1884	468.877832173043	1
0	1885	469.727954252181	0
0	1908	473.772112681241	1
0	1909	473.932761690094	0
0	1924	480.409786839769	1
0	1925	482.152232356305	0
0	1985	500.185269662	1
0	1992	503.0993024277	0
0	2003	503.873433150992	1
0	2005	503.875703535196	2
0	2006	503.934430967073	1
0	2016	507.083966134076	0
0	2026	509.254512703223	1
0	2028	510.710384012471	2
0	2029	513.78206288655	1
0	2034	514.068878042486	0
0	2060	520.479953698949	1
0	2061	524.283289810487	0
0	2068	525.304327551639	1
0	2069	525.636016530088	0
0	2100	532.231150417647	1
0	2101	532.366082267147	0
0	2107	532.886780877655	1
0	2108	532.976446943722	0
0	2114	533.55190832822	1
0	2115	534.679046441497	0
0	2126	538.334722480376	1
0	2130	539.310409369066	0
0	2233	576.65127351537	1
0	2234	577.58128203774	0
0	2268	583.245264818862	1
0	2269	583.76330737473	0
0	2303	592.890848754609	1
0	2304	593.481603919038	0
0	2325	595.892353513398	1
0	2327	596.481593953579	0
0	2333	597.684786464919	1
0	2334	598.503029860572	0
0	2356	607.004733163034	1
0	2357	607.280371252243	0
0	2427	624.868190629219	1
0	2430	626.378384824997	0
0	2442	627.687457911928	1
0	2444	628.255838917173	0
0	2459	630.686631997943	1
0	2462	631.093668801038	2
0	2467	632.624481052164	1
0	2472	633.927318380896	0
0	2490	637.029532047955	1
0	2491	637.068475446672	0
0	2497	637.379709210114	1
0	2504	638.122298979591	2
0	2505	638.257913561794	1
0	2516	640.190404240754	2
0	2519	641.402950092772	1
0	2525	641.733466096697	0
0	2578	657.604369915859	1
0	2581	661.296972399576	0
0	2602	665.681808310127	1
0	2603	666.091083358699	0
0	2646	680.566393381385	1
0	2650	680.919942465986	0
0	2710	698.468276715453	1
0	2712	699.436023909339	2
0	2716	702.552123126111	3
0	2718	703.752083858162	4
0	2719	703.841079868326	3
0	2726	706.741621323361	2
0	2732	707.052429501182	1
0	2738	707.182077564148	0
0	2744	707.8476914414	1
0	2745	708.258008680555	0
0	2758	709.665982548241	1
0	2761	711.200994981061	2
0	2763	711.632842380907	3
0	2764	711.840493503446	2
0	2772	715.248053644753	3
0	2774	717.276150067804	4
0	2775	718.895856704497	3
0	2780	718.987143045891	2
0	2789	721.272872407124	1
0	2794	721.348664757269	0
0	2834	736.317533990262	1
0	2835	737.112118920107	0
0	2843	737.370075085457	1
0	2845	739.242907544557	2
0	2846	739.427157098796	1
0	2851	739.494557546365	0
0	2883	752.621417861401	1
0	2884	752.980410831228	0
0	2906	760.320022331378	1
0	2907	761.715196830406	0
0	2929	770.431520552584	1
0	2931	770.683673012181	2
0	2935	771.576264631199	3
0	2936	771.920268246231	2
0	2941	772.473753532121	1
0	2947	773.796308332665	0
0	2970	777.817603673218	1
0	2971	778.139430556776	0
0	2992	785.528226074866	1
0	2993	785.794618553093	0
0	3001	786.394303627882	1
0	3002	787.137104520364	0
0	3030	790.972935703594	1
0	3033	792.425612292886	0
0	3079	808.032120159452	1
0	3082	808.297193400571	0
0	3107	812.551642249571	1
0	3109	813.058615947316	2
0	3112	813.480270812989	1
0	3120	815.936898662541	2
0	3122	817.693506263328	3
0	3124	818.109531834635	4
0	3125	818.446243133461	3
0	3130	818.55348658909	2
0	3136	820.033883079588	1
0	3141	820.357320304039	0
0	3175	828.361627922199	1
0	3177	828.941816533817	0
0	3184	829.555325348428	1
0	3187	831.986179978492	0
0	3215	838.873457261656	1
0	3217	839.874915494056	2
0	3218	841.45117687049	1
0	3223	841.80159943742	0
0	3255	848.310748781484	1
0	3256	848.722838279359	0
0	3273	850.147121092797	1
0	3274	852.103249013263	0
0	3288	855.955722850982	1
0	3291	857.632155233847	0
0	3335	868.743997067091	1
0	3339	869.433860461089	2
0	3340	869.529056180445	1
0	3345	869.76689237787	0
0	3368	871.950680222044	1
0	3370	872.553716920816	0
0	3379	874.463405277741	1
0	3380	874.490736308759	0
0	3386	875.073099727365	1
0	3390	876.655771756878	2
0	3391	876.796792952649	1
0	3397	877.864049671991	0
0	3404	879.571684499187	1
0	3405	879.822204080779	0
0	3411	880.04023237673	1
0	3413	880.054835876666	2
0	3417	881.623036797602	1
0	3424	882.735270757448	0
0	3441	884.800256445446	1
0	3444	890.147762066941	0
0	3450	890.234025013028	1
0	3452	890.807950368696	0
0	3481	900.326990499226	1
0	3483	900.756558903701	2
0	3487	901.532536577291	3
0	3488	901.60300349125	2
0	3493	902.812592605795	1
0	3499	903.028459310795	0
0	3522	908.154576063571	1
0	3523	908.957197218971	0
0	3543	918.534412433225	1
0	3545	918.711125965201	2
0	3548	919.005477472209	3
0	3549	919.075638975898	2
0	3555	920.52916342559	1
0	3560	921.991802928668	0
0	3659	941.608057115002	1
0	3660	941.985183635234	0
0	3772	969.554815249886	1
0	3773	969.939823008443	0
0	3779	970.537726940383	1
0	3781	970.930097279957	0
0	3828	985.601930742672	1
0	3830	985.621721873407	2
0	3832	986.681946211917	1
0	3837	986.799301533927	0
0	3873	992.930244649795	1
0	3874	993.150166319263	0
0	3907	1003.855338642587	1
0	3910	1005.972067484625	0
0	3941	1013.621481876772	1
0	3945	1014.93256310338	2
0	3946	1014.944026154533	1
0	3951	1015.875521642438	0
0	3964	1016.807522442962	1
0	3968	1019.237855852669	0
0	3982	1023.171839798542	1
0	3985	1025.114399602851	0
0	4022	1042.860121129325	1
0	4023	1044.225251777589	0
0	4037	1046.316461305688	1
0	4038	1047.236675900018	0
0	4074	1062.510420653559	1
0	4076	1063.767485087363	0
0	4084	1063.878736679757	1
0	4088	1065.421271114581	2
0	4089	1065.465387906814	1
0	4093	1065.996930105785	2
0	4098	1067.062576580055	1
0	4103	1067.776450179146	0
0	4107	1067.928862853572	1
0	4110	1068.870903442801	0
0	4136	1072.950971465318	1
0	4138	1073.348544097039	0
0	4151	1076.040882824621	1
0	4153	1076.765500048144	0
0	4159	1077.385243957344	1
0	4160	1077.436390477518	0
0	4191	1097.73097671574	1
0	4194	1099.366696098437	0
0	4225	1106.076948393628	1
0	4229	1106.750006981682	2
0	4230	1106.833980274532	1
0	4235	1106.905382903153	0
0	4265	1119.915719556065	1
0	4268	1120.393492659748	2
0	4272	1121.057306678439	3
0	4279	1123.493990295752	2
0	4286	1125.060676484117	3
0	4287	1125.280743202522	2
0	4292	1125.370451404712	1
0	4297	1125.538401202972	0
0	4308	1126.063693463225	1
0	4310	1128.517701299677	2
0	4311	1128.729928571285	1
0	4318	1129.631643011053	0
0	4362	1137.578285064423	1
0	4366	1138.102984864474	2
0	4371	1138.607877157667	1
0	4376	1139.472904376442	0
0	4394	1143.641711086424	1
0	4398	1144.52095201118	0
0	4412	1147.637544626598	1
0	4414	1149.288868141977	2
0	4420	1152.008530477117	1
0	4426	1153.613735257563	0
0	4437	1154.727793242908	1
0	4439	1154.821049934082	2
0	4441	1156.362478268751	1
0	4446	1156.567849672062	0
0	4475	1161.27761450327	1
0	4478	1161.435511370327	0
0	4514	1170.504240668072	1
0	4517	1171.304965827798	0
0	4527	1173.406678547598	1
0	4534	1178.386459631443	0
0	4546	1180.837902748925	1
0	4549	1181.219010165783	2
0	4554	1182.347852375837	1
0	4560	1182.821496018493	0
0	4571	1183.441479629015	1
0	4573	1184.555655996341	2
0	4574	1184.935172772424	1
0	4580	1185.020543502862	2
0	4581	1185.101837257799	1
0	4587	1185.705905134966	0
0	4606	1190.975618878046	1
0	4610	1191.094540933441	2
0	4612	1191.603082638906	1
0	4617	1192.819404080283	0
0	4623	1193.983446149032	1
0	4626	1194.998391557777	0
0	4654	1204.322328730631	1
0	4655	1204.419252762355	0
0	4677	1210.827418952133	1
0	4678	1211.320084886734	0
0	4689	1211.885611430872	1
0	4692	1214.090250649153	0
0	4698	1214.488604864906	1
0	4701	1214.913654401184	0
0	4724	1218.269537024206	1
0	4725	1218.288043207487	0
0	4732	1219.127789492955	1
0	4733	1219.242802450689	0
0	4753	1223.395841717926	1
0	4755	1223.904646221132	0
0	4826	1249.538604838933	1
0	4827	1249.748453407198	0
0	4868	1263.99847270306	1
0	4872	1265.435286950416	2
0	4874	1267.313367197741	3
0	4877	1269.091533067127	2
0	4883	1269.097631364478	1
0	4889	1269.684318422385	0
0	4915	1278.227138137178	1
0	4916	1278.261501690626	0
0	4932	1281.096947064645	1
0	4933	1281.345323378428	0
0	4970	1287.559314833548	1
0	4972	1287.868576051058	2
0	4974	1289.527792677061	1
0	4979	1290.094204617947	0
0	5007	1299.903986986831	1
0	5008	1300.037414678053	0
0	5053	1311.727229113817	1
0	5054	1311.988121568997	0
0	5065	1314.243989332655	1
0	5068	1319.128834318036	0
0	5109	1332.305913137091	1
0	5110	1332.497762940846	0
0	5135	1338.954689980574	1
0	5138	1342.710221081495	0
0	5155	1348.22254763534	1
0	5156	1349.352935086527	0
0	5173	1354.495366135296	1
0	5177	1356.956622721567	0
0	5184	1359.043028195738	1
0	5185	1359.553746812829	0
0	5199	1360.893729384082	1
0	5202	1363.34823675997	0
0	5310	1391.852764838163	1
0	5311	1392.415298888097	0
0	5341	1400.309583113474	1
0	5345	1400.742775249913	0
0	5365	1402.823982668865	1
0	5366	1403.161222001048	0
0	5374	1403.892564203003	1
0	5375	1404.09544882121	0
0	5381	1404.191918089021	1
0	5383	1406.919379952814	0
0	5389	1407.226341079077	1
0	5390	1407.442950545788	0
0	5402	1408.446721219291	1
0	5409	1409.278233800987	0
0	5415	1409.705396173895	1
0	5417	1409.909517221097	0
0	5433	1411.088549862637	1
0	5438	1413.730445120404	0
0	5444	1413.998015900373	1
0	5445	1415.443654072563	0
0	5461	1417.499709873272	1
0	5466	1418.439274629578	2
0	5470	1419.625344263646	3
0	5472	1419.846799881719	4
0	5483	1424.629405998594	5
0	5484	1425.656138200293	4
0	5490	1426.550344681993	3
0	5496	1426.76489269042	4
0	5502	1429.940792288818	5
0	5503	1430.603983739026	4
0	5509	1432.118945318561	3
0	5516	1433.412894355743	2
0	5521	1433.522919688579	1
0	5530	1436.757828432028	2
0	5534	1439.093404929357	1
0	5541	1440.0767381398	0
0	5576	1447.848611245002	1
0	5581	1449.43569597334	0
0	5587	1449.83225059318	1
0	5589	1451.545817983686	0
0	5596	1452.279021393894	1
0	5597	1452.499783315781	0
0	5603	1452.663198840657	1
0	5604	1453.116479011697	0
0	5625	1455.492114860707	1
0	5626	1456.667695328119	0
0	5632	1456.695628600971	1
0	5634	1456.920812374271	0
0	5656	1459.06900567891	1
0	5657	1459.979433547432	0
0	5690	1468.649018616324	1
0	5691	1468.804919343033	0
0	5713	1472.973002767419	1
0	5721	1477.573247417552	2
0	5722	1478.270458438495	1
0	5729	1480.196758079933	0
0	5736	1480.652606990787	1
0	5737	1482.077381440574	0
0	5750	1483.35854343273	1
0	5751	1484.294176069686	0
0	5757	1484.870069064536	1
0	5760	1485.789447892869	0
0	5772	1488.422507107593	1
0	5775	1489.701993915644	0
0	5792	1493.816481764381	1
0	5796	1494.789520458486	2
0	5799	1498.337645825967	1
0	5807	1501.634286544655	0
0	5831	1508.397183950193	1
0	5832	1508.572940263542	0
0	5839	1509.566189800283	1
0	5840	1510.123301989684	0
0	5850	1511.372361961767	1
0	5851	1512.458222667444	0
0	5878	1523.925431853385	1
0	5879	1524.480455024792	0
0	5900	1530.900256565142	1
0	5902	1531.677821773873	2
0	5905	1534.632469798595	1
0	5910	1534.677610305564	0
0	5918	1534.835258987759	1
0	5921	1535.559200935761	0
0	5927	1536.164900986245	1
0	5934	1538.310683636207	0
0	5951	1542.711363610755	1
0	5954	1544.005972443238	0
0	5992	1552.291246792351	1
0	5996	1554.597701351389	0
0	6038	1565.832093256399	1
0	6039	1566.113908226897	0
0	6071	1574.405386550708	1
0	6073	1574.893949986954	2
0	6074	1575.3953484286	1
0	6082	1578.010003690462	0
0	6108	1583.264126659195	1
0	6109	1583.446437631633	0
0	6120	1586.471933832258	1
0	6124	1586.764147214822	2
0	6125	1587.168561144471	1
0	6130	1587.711743044121	0
0	6142	1590.22826075197	1
0	6147	1591.860587554427	2
0	6149	1592.606194821226	3
0	6150	1592.97587023218	2
0	6156	1593.375980677789	3
0	6159	1593.793897341265	4
0	6160	1594.43036538578	3
0	6166	1595.494359335835	2
0	6172	1595.947065843547	3
0	6173	1596.661659666527	2
0	6178	1596.674943476548	1
0	6184	1596.759918259785	2
0	6187	1597.215392719193	3
0	6190	1598.037204722052	4
0	6192	1598.140558537246	5
0	6195	1598.826428796915	6
0	6196	1599.077610320995	5
0	6203	1601.078476655884	4
0	6208	1601.16193705608	3
0	6214	1601.57568601971	4
0	6216	1601.881310580681	5
0	6218	1602.19601324664	4
0	6226	1605.045304042294	3
0	6231	1605.574156837571	2
0	6236	1605.967606267072	1
0	6242	1606.016959165691	2
0	6245	1607.151544176075	1
0	6251	1608.836517542258	0
0	6289	1615.743524969351	1
0	6292	1616.020983736139	0
0	6304	1618.109953557701	1
0	6305	1618.288678516277	0
0	6311	1618.497419202207	1
0	6313	1618.882032603889	2
0	6316	1621.681818235641	1
0	6322	1622.117173623225	0
0	6370	1633.212261401854	1
0	6371	1633.51050096384	0
0	6408	1643.100819454537	1
0	6411	1644.009569341341	0
0	6449	1649.46746257995	1
0	6450	1649.971009924882	0
0	6465	1652.465776488877	1
0	6471	1655.084187636649	2
0	6472	1655.179312385976	1
0	6477	1655.409079280158	0
0	6483	1655.779828719065	1
0	6484	1656.228076322935	0
0	6602	1706.246407405904	1
0	6604	1708.405325212136	2
0	6606	1709.5735413421	3
0	6610	1710.560050198599	4
0	6612	1710.68899831905	5
0	6613	1710.84680425832	4
0	6623	1712.179111043902	3
0	6629	1712.874197671045	2
0	6635	1715.273523489468	1
0	6644	1717.091701581164	2
0	6645	1717.396720004273	1
0	6650	1718.024536350253	0
0	6664	1719.136558525013	1
0	6665	1719.581271853045	0
0	6697	1726.850238568753	1
0	6702	1730.890951777786	0
0	6732	1734.443999385373	1
0	6734	1735.007813012089	0
0	6749	1740.661292422957	1
0	6750	1741.273556048556	0
0	6763	1743.256799625778	1
0	6766	1743.536388399546	2
0	6768	1744.167991008459	3
0	6770	1744.358418088452	4
0	6771	1745.681833397556	3
0	6778	1747.250268089928	2
0	6783	1747.794053184504	1
0	6790	1748.603535042363	2
0	6794	1748.959214577839	1
0	6800	1749.086442838044	0
0	6806	1749.33780573028	1
0	6807	1749.904419378514	0
0	6819	1751.443719752069	1
0	6824	1753.842079737108	0
0	6874	1772.646859067536	1
0	6884	1773.977160492972	0
0	6910	1778.814979369711	1
0	6911	1779.645044594519	0
0	6930	1782.982169675739	1
0	6931	1787.306623305963	0
0	6952	1789.685440082723	1
0	6954	1790.468758021907	2
0	6956	1792.728156397119	1
0	6962	1794.04333701561	0
0	7027	1807.975050155006	1
0	7028	1808.531665239276	0
0	7058	1821.916827456164	1
0	7060	1822.012772562851	2
0	7061	1822.195997798559	1
0	7067	1823.134738809629	2
0	7070	1824.64032034562	3
0	7071	1824.929585384361	2
0	7078	1828.077110453134	1
0	7085	1828.978417250095	0
0	7112	1833.864363641951	1
0	7113	1833.929740075424	0
0	7145	1837.440448782831	1
0	7146	1837.638454701577	0
0	7174	1845.106444905639	1
0	7175	1845.947786733643	0
0	7188	1847.540551355508	1
0	7190	1850.135015562236	0
0	7247	1863.325391918265	1
0	7250	1864.685778207967	0
0	7257	1865.18903112392	1
0	7258	1865.575032715477	0
0	7267	1866.706289186237	1
0	7268	1866.746858995489	0
0	7277	1870.493557925937	1
0	7285	1873.812401765	0
0	7324	1880.148987967564	1
0	7325	1881.494072051985	0
0	7358	1885.310870800472	1
0	7362	1886.858791215604	0
0	7378	1888.187053408332	1
0	7382	1888.520217079934	2
0	7384	1888.781576124835	1
0	7389	1888.95969866977	0
0	7408	1892.558921523822	1
0	7412	1893.915208233211	0
0	7430	1896.288854609645	1
0	7431	1897.216802922545	0
0	7453	1902.368748258532	1
0	7455	1902.629040384647	2
0	7457	1903.751707376196	3
0	7459	1904.562899285188	4
0	7460	1904.943117235615	3
0	7465	1904.94802835155	2
0	7475	1906.982013455098	1
0	7484	1909.53292835043	0
0	7491	1909.93545964935	1
0	7493	1910.262395055936	2
0	7494	1911.705366961909	1
0	7499	1913.35929910541	0
0	7513	1915.725653661396	1
0	7515	1916.288824721818	2
0	7518	1917.661415990034	1
0	7524	1917.933220772296	2
0	7529	1919.019128155289	1
0	7534	1919.119082671577	0
0	7550	1921.55661170905	1
0	7553	1922.949636291789	0
0	7564	1924.247227791289	1
0	7567	1925.073490687531	2
0	7570	1925.283513646078	3
0	7571	1925.53717485756	2
0	7577	1926.126086453701	1
0	7586	1928.110400590252	0
0	7592	1928.217911266056	1
0	7596	1928.69018539805	2
0	7598	1928.757784746067	3
0	7599	1928.978807114599	2
0	7604	1929.192030971155	1
0	7615	1933.986298401121	0
0	7643	1938.777617139371	1
0	7644	1939.26814197361	0
0	7651	1939.615347386107	1
0	7653	1939.647045934763	2
0	7654	1940.471408929511	1
0	7662	1941.047159257999	2
0	7664	1942.103293618475	1
0	7670	1943.49336089286	0
0	7697	1950.448937102619	1
0	7698	1950.968996706162	0
0	7705	1951.827022969346	1
0	7706	1952.060704484619	0
0	7723	1953.051408454235	1
0	7729	1956.547157224021	2
0	7731	1957.026950351032	3
0	7737	1960.157616592077	4
0	7738	1960.839864830923	3
0	7743	1961.304528968197	2
0	7749	1961.436518788862	1
0	7754	1961.561204259882	0
0	7765	1962.640330344796	1
0	7766	1963.486126193426	0
0	7795	1967.86734755049	1
0	7798	1968.445961449252	0
0	7805	1969.867180672894	1
0	7806	1969.911062524938	0
0	7813	1971.618848031105	1
0	7819	1974.333691866092	2
0	7820	1974.453767187896	1
0	7826	1974.852261159088	0
0	7845	1976.781449813618	1
0	7847	1977.318837386916	0
0	7878	1985.551779293493	1
0	7882	1987.308221786532	0
0	7894	1988.513147300658	1
0	7895	1989.123331512062	0
0	7956	2008.628923762927	1
0	7957	2008.860031198669	0
0	7963	2009.490929035391	1
0	7964	2010.249704733803	0
0	7982	2013.970042826721	1
0	7986	2015.971494450905	0
0	7999	2020.494770493352	1
0	8000	2020.736395218182	0
0	8046	2031.299276180383	1
0	8049	2031.879929488581	0
0	8074	2035.082950975936	1
0	8076	2035.445759364206	2
0	8082	2036.655534045781	3
0	8083	2038.42667790171	2
0	8089	2040.642665830296	1
0	8094	2040.959683306976	0
0	8124	2047.629475136035	1
0	8131	2053.031220807108	0
0	8139	2053.776756990814	1
0	8141	2055.504936721356	2
0	8145	2060.140262176532	1
0	8150	2060.584260878344	0
0	8163	2064.513539097339	1
0	8165	2064.632357171588	2
0	8166	2065.528878799758	1
0	8175	2066.220137023729	2
0	8176	2066.937721580767	1
0	8182	2067.610652821852	0
0	8219	2077.830858774338	1
0	8221	2078.953949999681	2
0	8223	2079.067278342874	3
0	8225	2079.224605407832	4
0	8226	2079.437112626144	3
0	8232	2083.009114318959	2
0	8237	2083.16639522499	1
0	8242	2084.760831777889	0
0	8249	2085.291488403282	1
0	8251	2085.92276372011	2
0	8252	2086.242499944821	1
0	8258	2086.285470019321	2
0	8259	2086.7543577276	1
0	8266	2087.617588933919	2
0	8267	2087.745924297368	1
0	8272	2088.221396854794	0
0	8284	2093.690894200945	1
0	8288	2094.215768902589	2
0	8291	2095.399494838709	1
0	8300	2095.992570486318	0
0	8304	2096.343101978744	1
0	8307	2096.98127200774	0
0	8315	2099.349944463367	1
0	8316	2099.858962917478	0
0	8331	2101.895520207247	1
0	8334	2102.087006963198	2
0	8335	2102.589221161231	1
0	8344	2104.057960950872	0
0	8374	2105.957833277685	1
0	8381	2106.968220031841	2
0	8384	2107.808464200735	3
0	8386	2107.964844678557	4
0	8389	2109.333615407482	5
0	8390	2110.105396801682	4
0	8395	2111.540909162562	3
0	8401	2111.708831717768	4
0	8402	2112.101060522212	3
0	8407	2114.048340290809	2
0	8412	2114.993852507343	1
0	8417	2115.934022410812	0
0	8421	2117.951607830404	1
0	8425	2118.719924099805	2
0	8426	2119.440442862122	1
0	8431	2121.141037816422	0
0	8480	2131.849276598861	1
0	8481	2131.987098919943	0
0	8497	2135.27975058827	1
0	8499	2136.16801434421	2
0	8502	2136.741024804473	1
0	8508	2137.798923082748	0
0	8516	2138.371199900321	1
0	8519	2138.490693646053	2
0	8521	2139.132476172303	1
0	8527	2139.286516193394	2
0	8528	2139.451347187335	1
0	8535	2140.833279806698	2
0	8537	2141.05759767315	3
0	8540	2141.355709545533	2
0	8545	2141.374082101833	1
0	8553	2142.713241452552	2
0	8554	2142.72305206782	1
0	8559	2142.820684671188	0
0	8565	2143.019590168025	1
0	8566	2143.926021135752	0
0	8616	2155.640754942759	1
0	8618	2157.467937377865	2
0	8620	2158.09050884508	3
0	8621	2158.136190415744	2
0	8627	2158.655191273425	3
0	8628	2158.810701329634	2
0	8633	2159.123534848029	1
0	8639	2159.546167787138	2
0	8640	2159.62392674001	1
0	8646	2160.516425419491	0
0	8698	2172.644115387761	1
0	8699	2172.942362945328	0
0	8707	2174.271895363263	1
0	8708	2174.286098074076	0
0	8715	2175.381087835485	1
0	8716	2177.8199261312	0
0	8754	2202.645539571933	1
0	8755	2203.751201878956	0
0	8792	2217.977992258994	1
0	8793	2219.576876862102	0
0	8802	2221.618715573499	1
0	8803	2221.737718289688	0
0	8809	2222.975532552869	1
0	8811	2223.654628322617	0
0	8818	2226.746925405396	1
0	8820	2227.368307131004	2
0	8822	2229.183669938832	3
0	8823	2229.433998152011	2
0	8829	2229.74369219928	1
0	8835	2232.173188142157	0
0	8855	2236.013731603108	1
0	8856	2236.78743040108	0
0	8873	2239.633810023879	1
0	8874	2240.987661903047	0
0	8917	2247.674362041951	1
0	8918	2248.84923977787	0
0	8941	2258.954293300385	1
0	8942	2259.498961341211	0
0	8948	2259.583928754617	1
0	8951	2261.448968908741	0
0	8970	2265.34554373126	1
0	8972	2265.808935361223	2
0	8973	2267.354522549543	1
0	8979	2268.377843655377	0
0	9006	2280.692914239959	1
0	9008	2280.831033120357	2
0	9012	2281.519222415755	3
0	9013	2283.288490979041	2
0	9018	2283.408415650306	1
0	9025	2284.482051939041	2
0	9026	2285.361381307515	1
0	9031	2286.147504742439	0
0	9091	2306.981051899884	1
0	9093	2309.238682636699	2
0	9097	2309.764379689052	3
0	9098	2310.731402302922	2
0	9103	2312.156996103187	1
0	9108	2312.295724033319	0
0	9125	2314.65693552873	1
0	9130	2316.89824950789	0
0	9167	2327.431998864565	1
0	9169	2328.900102069476	2
0	9170	2330.568956658524	1
0	9179	2331.861648557124	2
0	9181	2332.501307874589	3
0	9183	2333.255971458632	4
0	9184	2334.658416433872	3
0	9189	2334.805009131732	2
0	9195	2334.871139183365	3
0	9200	2337.330676739659	2
0	9205	2337.530988590596	1
0	9211	2337.736772374578	2
0	9214	2338.235815694686	1
0	9224	2339.492069530795	0
0	9240	2342.800113330832	1
0	9242	2342.921336665179	2
0	9243	2343.315121964655	1
0	9253	2345.235940438353	0
0	9259	2345.505633299711	1
0	9260	2345.745016121045	0
0	9275	2347.544185963051	1
0	9276	2347.640196158117	0
0	9296	2352.917341572313	1
0	9297	2353.068518376365	0
0	9311	2353.78764859455	1
0	9313	2355.497982127349	0
0	9327	2357.042759302552	1
0	9331	2359.585211013181	0
0	9343	2363.530911170218	1
0	9346	2364.781165712196	0
0	9356	2366.035501405033	1
0	9357	2367.04246248221	0
0	9420	2388.450834835048	1
0	9423	2388.83729313708	0
0	9429	2388.874965973836	1
0	9430	2389.195990596647	0
0	9447	2390.850089014531	1
0	9452	2393.183028121314	0
0	9486	2400.552947800989	1
0	9489	2402.378081912616	2
0	9491	2402.730337156365	3
0	9492	2403.020925912485	2
0	9499	2404.662623286319	3
0	9500	2405.392213810255	2
0	9505	2406.065595222647	1
0	9511	2406.386410953636	2
0	9512	2406.481364068303	1
0	9523	2407.949749224527	0
0	9529	2410.22901652613	1
0	9532	2411.58220531171	0
0	9570	2421.012166979348	1
0	9571	2421.322186431887	0
0	9595	2428.461583789682	1
0	9596	2430.050588276158	0
0	9632	2439.478165201491	1
0	9634	2439.499768317693	2
0	9635	2440.613090582711	1
0	9642	2442.088154115901	0
0	9651	2443.585946611301	1
0	9654	2443.645493820447	2
0	9656	2443.738100499724	3
0	9659	2443.971396587107	4
0	9660	2444.219256225769	3
0	9665	2444.527153883624	2
0	9670	2445.624133432286	1
0	9681	2446.04542104876	2
0	9683	2447.218277040917	1
0	9688	2449.343669396494	0
0	9695	2451.03415150243	1
0	9696	2451.672872734898	0
0	9714	2456.1443388001	1
0	9715	2456.516660625677	0
0	9727	2460.682945366906	1
0	9730	2463.685090952831	0
0	9754	2466.880648959497	1
0	9757	2467.964452779067	0
0	9764	2468.057050061339	1
0	9766	2468.611901450908	0
0	9808	2477.988666998625	1
0	9809	2478.764251642771	0
0	9831	2482.631508584913	1
0	9835	2483.774614512135	0
0	9853	2485.59310632808	1
0	9857	2486.143296673759	2
0	9858	2486.71458057646	1
0	9865	2487.768434272676	0
0	9887	2492.658293953432	1
0	9889	2493.361694553759	2
0	9891	2493.679202085209	3
0	9892	2494.225609938901	2
0	9897	2495.167554642862	1
0	9902	2495.493803884813	0
0	9919	2499.459327579787	1
0	9921	2500.058226680787	0
0	9936	2503.239663385041	1
0	9939	2503.467422862005	2
0	9940	2504.041536799768	1
0	9946	2505.253772089626	0
0	9960	2509.31151323509	1
0	9963	2510.771020493376	0
0	9985	2514.724944490163	1
0	9988	2516.674926219086	0
0	10025	2526.098371451958	1
0	10026	2526.408154814019	0
0	10033	2527.940233456523	1
0	10034	2528.87117786837	0
0	10040	2529.158751652234	1
0	10041	2529.242170268118	0
0	10048	2530.124502263575	1
0	10050	2530.737537339773	0
0	10098	2548.490614458256	1
0	10099	2548.996151223703	0
0	10105	2550.010237623895	1
0	10108	2552.783134911765	0
0	10162	2572.356097304062	1
0	10167	2573.256645772007	2
0	10172	2575.326321014466	3
0	10173	2575.788802614133	2
0	10178	2576.851697298046	1
0	10187	2577.964142731755	2
0	10188	2577.970602828681	1
0	10197	2578.706129876674	0
0	10219	2581.769831637035	1
0	10220	2582.227580176322	0
0	10252	2590.36184968337	1
0	10253	2591.655786725686	0
0	10327	2615.471076572883	1
0	10328	2616.189639987927	0
0	10357	2621.798686837714	1
0	10359	2623.999627109149	2
0	10360	2624.750801625324	1
0	10370	2627.933136691676	2
0	10371	2628.513349998972	1
0	10377	2628.851468850507	2
0	10379	2629.807405708479	3
0	10382	2630.482646397642	4
0	10383	2630.497521371373	3
0	10388	2630.56649044294	2
0	10394	2631.753655571173	1
0	10408	2633.692364900527	0
0	10414	2633.87481288476	1
0	10415	2634.659739278615	0
0	10421	2635.627037407453	1
0	10423	2635.630206245431	2
0	10425	2635.794524628777	3
0	10426	2635.928818477487	2
0	10431	2636.568746436076	1
0	10437	2637.049317676972	0
0	10449	2637.207521304707	1
0	10452	2637.880088954098	0
0	10476	2640.253486365157	1
0	10477	2641.363027276224	0
0	10489	2644.986194641343	1
0	10495	2645.971259911652	2
0	10496	2646.048074735385	1
0	10501	2646.2358551254	0
0	10509	2647.864684990168	1
0	10512	2648.708471794464	0
0	10518	2648.751961912323	1
0	10521	2650.358803840966	2
0	10524	2652.990914083645	1
0	10530	2653.735587079147	0
0	10536	2653.924309721767	1
0	10538	2653.925488191044	2
0	10541	2656.345925003845	3
0	10543	2656.484058090298	4
0	10545	2656.823636559051	5
0	10547	2656.95315872651	6
0	10548	2659.568061187594	5
0	10556	2661.615315916826	6
0	10557	2662.010788960022	5
0	10562	2662.100507075478	4
0	10570	2663.544888705426	3
0	10578	2663.946396411418	4
0	10579	2664.102119560859	3
0	10585	2664.855003132484	2
0	10590	2664.862628066826	1
0	10595	2665.534361013197	0
0	10601	2665.597211222176	1
0	10604	2665.820584976191	0
0	10608	2666.655848015048	1
0	10612	2668.746909242958	2
0	10613	2668.7851850473	1
0	10618	2670.262416527436	0
0	10622	2670.418974220245	1
0	10626	2672.138874671101	0
0	10652	2678.13016184731	1
0	10654	2678.30016763751	2
0	10655	2678.897517147	1
0	10661	2679.860028538039	0
0	10693	2691.237789338467	1
0	10694	2691.498455207749	0
0	10726	2695.678866894463	1
0	10729	2699.769911345644	2
0	10730	2699.852669988029	1
0	10735	2700.723577984969	0
0	10758	2705.557293471947	1
0	10759	2706.1891664236	0
0	10772	2707.533659545819	1
0	10775	2708.196115526389	2
0	10778	2709.160008548477	3
0	10779	2709.671719432254	2
0	10785	2709.759506437174	3
0	10789	2711.366371628013	2
0	10794	2711.457695592525	1
0	10799	2711.530429690561	0
0	10810	2713.449585045043	1
0	10812	2714.462634893841	0
0	10818	2714.625908257709	1
0	10819	2715.253346452531	0
0	10825	2715.315271500184	1
0	10827	2715.511813190996	2
0	10829	2717.288735567506	3
0	10830	2717.461250024332	2
0	10835	2719.067925101302	1
0	10841	2719.961292230736	0
0	10868	2724.757366015451	1
0	10873	2726.989602166337	2
0	10874	2727.047909876786	1
0	10881	2727.884762726536	2
0	10883	2728.56654545341	1
0	10890	2729.275819186134	0
0	10911	2735.304775098161	1
0	10912	2736.663798459444	0
0	10928	2742.297268450594	1
0	10930	2743.05128910444	0
0	10959	2748.544503845929	1
0	10961	2750.613832560001	0
0	10984	2759.28800951939	1
0	10985	2759.656129730976	0
0	11007	2765.505315125254	1
0	11010	2766.910103531653	2
0	11012	2767.086690875744	3
0	11013	2768.537638067998	2
0	11018	2768.703680382869	1
0	11023	2768.837976909245	0
0	11038	2770.762769479215	1
0	11040	2770.989287864999	2
0	11042	2773.365895893009	1
0	11049	2775.200184562657	2
0	11051	2776.707136530676	3
0	11054	2780.037666148134	2
0	11060	2780.060870966116	1
0	11068	2780.117702606579	2
0	11069	2780.484698072546	1
0	11074	2780.66608600375	0
0	11081	2781.301304619922	1
0	11083	2782.335722359466	0
0	11089	2782.790190784461	1
0	11090	2782.901268751062	0
0	11106	2785.145121170684	1
0	11108	2786.106987063184	2
0	11109	2786.542929731843	1
0	11114	2786.66058838565	0
0	11136	2790.326728585718	1
0	11138	2790.838103081202	2
0	11139	2790.964636581563	1
0	11144	2791.473558613514	0
0	11246	2815.56949540586	1
0	11247	2818.649329258224	0
0	11274	2822.777511512473	1
0	11275	2823.989993898126	0
0	11286	2824.917722445178	1
0	11289	2827.471197667553	0
0	11309	2830.820026309282	1
0	11311	2830.980894550508	2
0	11313	2831.093103278844	1
0	11319	2831.515418848924	2
0	11321	2832.441200172942	3
0	11323	2832.993497397764	4
0	11328	2834.435409545738	5
0	11329	2834.656346075734	4
0	11334	2836.937561902089	3
0	11341	2837.316152515626	2
0	11347	2838.368021414975	1
0	11352	2838.540076793838	0
0	11366	2841.222636455282	1
0	11368	2841.410124361035	2
0	11371	2844.417214312469	1
0	11378	2844.73601912917	0
0	11384	2845.047220724839	1
0	11385	2845.176904537782	0
0	11404	2847.231825067013	1
0	11406	2848.105764674317	0
0	11453	2860.81434011919	1
0	11454	2860.886911990251	0
0	11493	2866.278007656074	1
0	11496	2868.164413248555	2
0	11497	2868.258160547797	1
0	11502	2868.258564280901	0
0	11524	2871.262841221	1
0	11525	2871.32359647247	0
0	11543	2875.334950936254	1
0	11544	2876.239254756728	0
0	11597	2887.391727461562	1
0	11599	2889.55286763988	2
0	11600	2891.428212658247	1
0	11605	2891.485546531913	0
0	11620	2899.241560511044	1
0	11622	2899.857696475873	2
0	11623	2900.067465219559	1
0	11630	2900.612342598366	2
0	11631	2902.495386042211	1
0	11637	2902.563878744597	2
0	11639	2902.736956923553	3
0	11640	2903.453871380271	2
0	11646	2904.432955939455	1
0	11651	2905.468548258346	0
0	11668	2906.744635398585	1
0	11669	2907.184739240156	0
0	11688	2913.69532353815	1
0	11690	2914.181424310057	2
0	11693	2915.512857135941	1
0	11699	2917.611662357917	0
0	11707	2919.153265125563	1
0	11708	2919.984455852595	0
0	11773	2930.838983942679	1
0	11776	2931.676674796806	0
0	11783	2932.651357867919	1
0	11785	2934.34729406946	2
0	11786	2937.201682036536	1
0	11792	2937.581442091342	0
0	11798	2937.840988488728	1
0	11801	2938.898473180761	2
0	11802	2938.915328208601	1
0	11807	2939.110677693806	0
0	11826	2940.530552784604	1
0	11827	2940.532809362335	0
0	11875	2954.899781208993	1
0	11876	2955.143585359459	0
0	11887	2956.054049167197	1
0	11891	2956.820673515893	2
0	11895	2958.535916602766	1
0	11903	2960.381701525439	0
0	11938	2964.177050315284	1
0	11939	2964.204396491231	0
0	12055	3002.874908826503	1
0	12059	3004.763648761296	2
0	12060	3005.953869947487	1
0	12066	3006.109220705167	2
0	12069	3007.260195935991	3
0	12070	3007.969864914926	2
0	12075	3008.31362876032	1
0	12080	3008.415959739184	0
0	12087	3009.092734805012	1
0	12090	3010.961564014279	0
0	12131	3025.890002273284	1
0	12133	3026.326040171257	2
0	12134	3026.634241622459	1
0	12141	3026.978276110643	2
0	12142	3027.108738805378	1
0	12147	3027.90092569242	0
0	12170	3038.923339512499	1
0	12171	3040.979797208162	0
0	12232	3063.307464251406	1
0	12233	3064.700456101776	0
0	12249	3069.366932193166	1
0	12251	3070.51723105198	2
0	12253	3072.375870865983	3
0	12254	3072.689206496118	2
0	12260	3072.970590499366	1
0	12266	3073.426537368506	2
0	12267	3073.520080426708	1
0	12273	3073.609705958328	2
0	12278	3076.537356271806	1
0	12285	3077.653152803037	0
0	12291	3077.740032373097	1
0	12292	3078.5676650612	0
0	12332	3090.539060870212	1
0	12333	3090.684700727789	0
0	12347	3091.913613475069	1
0	12350	3095.829979268841	2
0	12352	3096.281653076336	3
0	12353	3097.051540595266	2
0	12359	3097.956779373715	1
0	12365	3100.48276965421	0
0	12387	3105.623970516958	1
0	12389	3107.356834506798	0
0	12405	3108.785831889111	1
0	12407	3110.324345276675	2
0	12408	3110.497917246333	1
0	12413	3111.154410736484	0
0	12453	3121.593652668613	1
0	12455	3121.94591273544	2
0	12457	3122.636030955342	3
0	12459	3123.564763876812	4
0	12460	3124.072925484256	3
0	12465	3124.181021382867	2
0	12470	3124.361623121501	1
0	12476	3125.105446822469	0
0	12484	3125.361806531747	1
0	12487	3126.021275011226	2
0	12489	3128.224843656976	1
0	12496	3129.024662426082	2
0	12497	3129.043631625337	1
0	12502	3129.464206961597	0
0	12514	3130.568082054725	1
0	12517	3133.024621881692	2
0	12521	3136.433644203236	1
0	12527	3136.704397111785	2
0	12532	3140.329387840395	1
0	12538	3140.559731524383	0
0	12557	3142.60447395969	1
0	12558	3143.544918420357	0
0	12565	3144.884313004268	1
0	12567	3145.753203875819	0
0	12621	3158.128279878768	1
0	12624	3159.365004601103	0
0	12630	3159.539630902952	1
0	12633	3159.743901271079	0
0	12669	3170.297058952918	1
0	12670	3170.737500287412	0
0	12700	3176.237218875495	1
0	12703	3179.249361468099	0
0	12731	3186.779234679077	1
0	12733	3190.077793915491	0
0	12852	3223.142486401148	1
0	12854	3225.618033197383	2
0	12855	3226.260758083603	1
0	12862	3226.889713170299	2
0	12863	3226.925840234211	1
0	12869	3227.479131271554	2
0	12870	3227.502126772896	1
0	12876	3228.451088036643	0
0	12892	3237.688627497189	1
0	12894	3242.216690957807	2
0	12896	3243.06820337458	3
0	12898	3243.418756578867	4
0	12899	3244.366696023746	3
0	12904	3244.564556161092	2
0	12915	3247.79944807232	3
0	12916	3248.057108349553	2
0	12930	3250.813468641097	3
0	12932	3250.858359385478	4
0	12936	3253.00406193425	3
0	12942	3253.306587874271	4
0	12944	3254.438273961036	3
0	12949	3254.712038382447	2
0	12954	3256.620450342247	1
0	12959	3257.695243782798	0
0	12978	3260.582008284318	1
0	12979	3260.709018158929	0
0	12998	3262.390077974027	1
0	13001	3262.906267811667	2
0	13002	3262.955366298374	1
0	13008	3264.065383123929	0
0	13027	3268.04617465269	1
0	13029	3268.69260206154	0
0	13040	3268.823264672714	1
0	13041	3268.923310228973	0
0	13056	3270.260165539209	1
0	13059	3272.901252408647	0
0	13077	3285.28864044218	1
0	13079	3286.120055070326	2
0	13080	3287.510680648589	1
0	13085	3287.961094150364	0
0	13124	3295.856057282581	1
0	13126	3296.047553145631	2
0	13128	3296.264007719524	3
0	13132	3297.323336471021	2
0	13137	3297.545278349951	1
0	13142	3298.085555319425	0
0	13155	3299.342632837749	1
0	13156	3299.451911769782	0
0	13172	3302.950801989247	1
0	13173	3303.007644316482	0
0	13194	3305.359788757298	1
0	13198	3306.759951863004	0
0	13204	3306.820772048302	1
0	13209	3308.23591665852	2
0	13210	3308.971126990832	1
0	13215	3310.46564582961	0
0	13231	3311.621384435706	1
0	13232	3311.881852826397	0
0	13274	3326.229624555926	1
0	13275	3327.424632813179	0
0	13282	3327.765962145316	1
0	13283	3328.405850707924	0
0	13297	3329.258026707404	1
0	13299	3329.462277085027	2
0	13304	3330.321757371735	1
0	13311	3330.660519023818	0
0	13377	3347.192270153149	1
0	13378	3347.869045024193	0
0	13409	3363.624256557385	1
0	13411	3364.624630339633	0
0	13452	3380.551920069837	1
0	13455	3381.207926064439	0
0	13461	3381.961954211299	1
0	13462	3382.465265714782	0
0	13492	3387.417250823031	1
0	13493	3388.539196829276	0
0	13517	3389.970743137628	1
0	13519	3390.672797464574	2
0	13521	3391.004703586562	3
0	13525	3394.058386402282	2
0	13531	3395.946852766082	1
0	13536	3396.112886262728	0
0	13605	3412.012635961415	1
0	13607	3412.878155421693	2
0	13609	3413.279927780453	3
0	13613	3414.565166091489	4
0	13618	3416.270789270495	3
0	13623	3416.52761420829	2
0	13628	3416.858575457258	1
0	13634	3417.120915821305	0
0	13643	3420.13062331475	1
0	13645	3420.282841137468	2
0	13646	3420.435797048521	1
0	13652	3420.830163507054	2
0	13654	3422.272342792231	1
0	13661	3422.968310744213	2
0	13664	3423.651772316899	1
0	13670	3424.518383978018	0
0	13676	3425.42330982678	1
0	13678	3425.818412456413	2
0	13680	3426.797721254978	1
0	13685	3426.832494551549	0
0	13697	3427.772104753978	1
0	13700	3428.433489134446	0
0	13706	3428.505452206168	1
0	13707	3428.705721075172	0
0	13713	3429.296722406681	1
0	13714	3429.366412191304	0
0	13738	3432.820813391677	1
0	13740	3433.280257577032	2
0	13748	3434.679927257832	1
0	13754	3436.505897759641	0
0	13783	3440.865392205604	1
0	13790	3443.801490018197	0
0	13796	3443.823963602432	1
0	13800	3445.167056741724	0
0	13812	3446.69553879741	1
0	13813	3446.946784057784	0
0	13837	3450.304905400643	1
0	13840	3451.967853993934	0
0	13851	3453.258486453492	1
0	13853	3455.216733654188	0
0	13860	3456.483696292658	1
0	13861	3456.537506408005	0
0	13876	3460.695846478943	1
0	13878	3461.825662860817	0
0	13897	3467.373089148951	1
0	13899	3467.569633668528	2
0	13904	3469.123574529205	1
0	13910	3469.646340806115	2
0	13912	3470.814141787366	3
0	13914	3470.820658137117	4
0	13915	3471.006960269622	3
0	13923	3471.923653111716	2
0	13928	3472.219171590555	1
0	13939	3474.589436395733	0
0	13947	3474.682549825356	1
0	13948	3475.884078611049	0
0	13988	3479.438911544804	1
0	13989	3480.708896746796	0
0	14007	3482.095878460204	1
0	14009	3483.659283895233	2
0	14010	3485.111482103429	1
0	14019	3487.549538421799	2
0	14023	3488.514740701649	1
0	14029	3489.689520970049	0
0	14035	3490.146836649986	1
0	14036	3490.233486060549	0
0	14042	3490.265094072872	1
0	14043	3490.403784844879	0
0	14083	3496.18863766952	1
0	14085	3499.21153901746	0
0	14100	3502.121498686353	1
0	14101	3502.652740244219	0
0	14115	3505.567774600268	1
0	14116	3506.012615174906	0
0	14140	3510.139026261933	1
0	14142	3510.364828554407	2
0	14143	3510.3663873586	1
0	14149	3510.93420949699	2
0	14152	3511.343926344939	1
0	14157	3511.362412275784	0
0	14163	3511.380968163842	1
0	14164	3512.298251556212	0
0	14170	3512.348242017461	1
0	14174	3514.204341698395	0
0	14200	3523.916643763847	1
0	14206	3524.789869136437	2
0	14209	3527.322098302236	1
0	14214	3527.651151381173	0
0	14223	3527.926779181105	1
0	14229	3529.051822999493	2
0	14230	3529.096915127174	1
0	14236	3529.18643127055	2
0	14237	3530.331939306542	1
0	14242	3530.3612211522	0
0	14265	3536.542956852169	1
0	14267	3536.975806837056	0
0	14275	3537.277747359685	1
0	14279	3539.400105540624	0
0	14299	3541.2542133953	1
0	14301	3541.911477813421	2
0	14305	3543.834956013067	3
0	14306	3544.278856117012	2
0	14312	3544.589163598123	1
0	14319	3544.97265335111	0
0	14326	3545.771808812254	1
0	14330	3547.807729887088	2
0	14331	3547.921632236355	1
0	14336	3548.013274409066	0
0	14342	3548.244733763452	1
0	14343	3548.432474236794	0
0	14349	3548.516479272469	1
0	14352	3550.243286979601	0
0	14358	3551.01652774229	1
0	14360	3551.914390924745	2
0	14362	3552.763774852018	1
0	14367	3553.298463843409	0
0	14391	3559.552964897398	1
0	14395	3560.181711605165	0
0	14417	3562.592172601703	1
0	14419	3563.202639442223	0
0	14460	3573.414845737831	1
0	14465	3575.775393558882	0
0	14473	3577.250704296432	1
0	14474	3579.655978199162	0
0	14504	3591.644767854064	1
0	14507	3593.414748232893	0
0	14531	3596.991547743014	1
0	14533	3597.002194289143	2
0	14541	3599.635001400538	3
0	14546	3601.167202957777	2
0	14552	3601.430404771955	3
0	14553	3601.444173843249	2
0	14558	3601.468553550402	1
0	14564	3601.959759442791	2
0	14567	3602.529701590936	1
0	14576	3604.317089732948	0
0	14590	3605.261765690265	1
0	14594	3606.21502163394	2
0	14596	3609.052628368981	3
0	14597	3609.93856814315	2
0	14602	3610.81238429644	1
0	14608	3611.230067553032	0
0	14650	3620.810887952225	1
0	14655	3624.335253736155	0
0	14664	3624.733596935421	1
0	14666	3625.646653575231	2
0	14671	3627.154233024206	1
0	14677	3627.59315086524	0
0	14691	3631.047893825671	1
0	14693	3632.173236991085	2
0	14695	3632.200245764423	3
0	14697	3632.982532084492	4
0	14702	3634.051047552258	3
0	14707	3634.111754930185	2
0	14713	3634.52539582008	3
0	14715	3634.581932061636	2
0	14721	3634.949602034491	3
0	14723	3635.117243122188	2
0	14728	3635.358017661771	1
0	14733	3635.996581120852	0
0	14743	3637.109578370781	1
0	14744	3637.158898146035	0
0	14765	3638.55778773102	1
0	14766	3638.634374977348	0
0	14801	3649.094915043087	1
0	14803	3651.335446371597	2
0	14805	3651.468360188093	3
0	14807	3652.554333953882	4
0	14813	3656.826020393458	5
0	14814	3657.142162398735	4
0	14819	3657.254639006485	3
0	14830	3660.366705527118	2
0	14835	3660.462635683154	1
0	14840	3660.543750210147	0
0	14853	3661.787688638924	1
0	14854	3662.16318253186	0
0	14866	3663.274626888111	1
0	14867	3665.949212256915	0
0	14928	3687.320117719082	1
0	14929	3688.001333370339	0
0	14940	3689.292277043042	1
0	14941	3689.529932290061	0
0	14957	3691.243046032427	1
0	14958	3691.346722311258	0
0	15044	3707.6758998446	1
0	15046	3708.212592774906	2
0	15047	3708.583294881911	1
0	15054	3709.089961398249	2
0	15059	3710.781516943765	1
0	15066	3711.089303696357	0
0	15078	3712.102616516126	1
0	15079	3712.453725593079	0
0	15092	3715.44288312504	1
0	15095	3716.496773880557	2
0	15099	3718.813469028763	3
0	15101	3720.355038905239	4
0	15102	3720.94461804215	3
0	15108	3721.136060733857	4
0	15110	3722.689147489257	5
0	15111	3722.821805623244	4
0	15117	3723.329909995616	5
0	15121	3724.284552873055	6
0	15124	3724.882799249384	5
0	15129	3725.63792591713	4
0	15134	3726.907423891406	3
0	15139	3726.956361380766	2
0	15144	3728.249773952415	1
0	15148	3730.492821104043	2
0	15150	3730.50488722028	3
0	15152	3731.835159932163	4
0	15154	3732.206980137432	5
0	15156	3732.994334749957	6
0	15163	3736.805451026561	7
0	15166	3737.534319471825	6
0	15171	3737.541725084044	5
0	15178	3737.874307067239	6
0	15179	3738.821974033683	5
0	15187	3739.832375324199	4
0	15192	3740.667342353027	3
0	15197	3742.245068903995	2
0	15202	3742.604522384388	1
0	15210	3745.340794552678	0
0	15224	3748.214121583869	1
0	15228	3749.885187641739	0
0	15245	3750.493409683321	1
0	15248	3752.883818229431	0
0	15272	3757.121915919977	1
0	15273	3759.736334092641	0
0	15279	3759.878406776022	1
0	15281	3760.671176765173	0
0	15295	3761.870748412415	1
0	15297	3762.902470761331	2
0	15298	3763.570349890834	1
0	15304	3764.406981029997	0
0	15345	3781.451212414746	1
0	15346	3784.175904101265	0
0	15382	3792.673414139682	1
0	15384	3793.030406452861	0
0	15401	3795.105053247013	1
0	15404	3796.376070640249	0
0	15424	3798.751834926281	1
0	15429	3801.183376009794	2
0	15430	3801.84250607417	1
0	15435	3803.045027802886	0
0	15483	3812.010961791156	1
0	15488	3812.985868634977	0
0	15515	3821.635839957195	1
0	15516	3821.793269023301	0
0	15527	3822.298988946031	1
0	15532	3826.549538173936	2
0	15537	3829.122577214762	3
0	15538	3830.836464443549	2
0	15543	3830.876121190684	1
0	15548	3831.618859392456	0
0	15572	3836.592161084444	1
0	15574	3836.631587309428	2
0	15576	3836.695876319946	3
0	15579	3837.20572704947	2
0	15585	3838.337214316216	1
0	15594	3839.45037034069	0
0	15606	3841.566441172921	1
0	15607	3842.32291386705	0
0	15618	3845.234993897644	1
0	15623	3848.776331219571	2
0	15625	3849.440243258905	3
0	15626	3849.762215245118	2
0	15634	3850.43282430674	3
0	15635	3850.755406582562	2
0	15643	3850.926495064882	3
0	15645	3851.96154386558	2
0	15650	3852.399333668459	1
0	15655	3853.077782027393	0
0	15683	3854.877976274922	1
0	15685	3855.508668727637	0
0	15720	3858.835371485279	1
0	15722	3859.43014403746	2
0	15723	3860.048710529213	1
0	15728	3860.226639998167	0
0	15751	3865.274829114895	1
0	15756	3868.239223012354	2
0	15757	3869.811117473546	1
0	15762	3869.819131975716	0
0	15768	3869.934780315999	1
0	15769	3869.955147791739	0
0	15821	3875.411368453935	1
0	15822	3875.500072346983	0
0	15828	3875.527973665538	1
0	15829	3875.634428171106	0
0	15835	3876.947030341808	1
0	15837	3877.67905071657	2
0	15841	3878.085197396691	3
0	15842	3878.636023635866	2
0	15848	3879.634654314178	3
0	15849	3879.708432965998	2
0	15853	3880.87418641067	3
0	15856	3883.708986932999	2
0	15862	3885.439903540235	3
0	15867	3887.65787388957	2
0	15872	3887.820432584419	1
0	15878	3888.186342135505	2
0	15880	3888.427590611197	1
0	15886	3889.688015263864	0
0	15914	3897.096453189618	1
0	15916	3898.822150863975	0
0	15948	3909.003871685847	1
0	15949	3909.05687507194	0
0	15955	3909.206558988174	1
0	15958	3909.379824550772	0
0	15965	3910.243527780704	1
0	15967	3911.098625076271	0
0	15981	3912.756501146497	1
0	15982	3912.878120545204	0
0	15996	3913.836773063983	1
0	16001	3915.307758930179	0
0	16008	3915.835828861557	1
0	16010	3916.713882470071	0
0	16017	3917.77807741177	1
0	16020	3919.00959854779	0
0	16035	3923.332263215126	1
0	16036	3924.954668987881	0
0	16047	3925.170328549091	1
0	16051	3927.422482036323	0
0	16071	3929.060838481181	1
0	16074	3929.3698710395	0
0	16103	3932.608869226212	1
0	16104	3933.124040586923	0
0	16110	3933.749416364918	1
0	16112	3933.857087153239	2
0	16114	3933.920143992492	3
0	16116	3935.073619233179	4
0	16118	3935.085786363864	5
0	16119	3935.883819291545	4
0	16125	3937.241885538064	3
0	16131	3937.25821053085	4
0	16132	3937.283755752497	3
0	16145	3940.771828637331	2
0	16151	3941.515022329177	1
0	16158	3941.717728858769	2
0	16160	3942.207486466099	3
0	16161	3942.32158868807	2
0	16167	3944.500744905924	3
0	16173	3947.774702663548	4
0	16181	3948.853243123648	5
0	16183	3949.478895695856	6
0	16194	3953.792390824346	5
0	16201	3956.373476113477	6
0	16202	3957.333465856348	5
0	16208	3957.522662759418	6
0	16211	3957.856015599825	5
0	16217	3958.366397712564	6
0	16218	3959.092528227857	5
0	16224	3959.297691356196	6
0	16227	3959.43426102328	7
0	16232	3961.299863767242	6
0	16239	3964.098416231126	7
0	16241	3964.185382425915	8
0	16242	3964.476932984015	7
0	16250	3964.990289928	8
0	16256	3968.015623886963	7
0	16262	3969.258812003444	6
0	16268	3969.389782797434	7
0	16269	3970.431117597775	6
0	16274	3970.652905390586	5
0	16279	3971.126874176585	4
0	16284	3971.386645151594	3
0	16293	3972.687142571299	2
0	16302	3974.41966540849	3
0	16303	3974.626380438794	2
0	16310	3975.835284364056	1
0	16317	3976.362432070764	2
0	16322	3978.28196284265	1
0	16328	3979.123452867072	0
0	16334	3979.69363950072	1
0	16337	3981.16151585381	0
0	16407	3992.43718311628	1
0	16410	3994.057748101507	0
0	16419	3994.595665518309	1
0	16422	3995.208519756603	0
0	16431	3999.695879268913	1
0	16434	4000.402365047405	0
0	16513	4031.535511980982	1
0	16516	4034.366080477201	0
0	16522	4036.139978573333	1
0	16525	4038.556606216867	2
0	16528	4041.292165207274	1
0	16534	4042.794426211195	0
0	16540	4042.947328028064	1
0	16544	4044.363675189989	0
0	16596	4057.258563638962	1
0	16597	4057.326360875743	0
0	16603	4058.099446467413	1
0	16604	4058.596003685027	0
0	16644	4064.954003684228	1
0	16645	4065.061510432514	0
0	16673	4070.085106238515	1
0	16675	4072.545901505274	2
0	16677	4074.484002390668	3
0	16678	4074.587421551926	2
0	16686	4075.659875395716	1
0	16695	4077.177116598151	0
0	16709	4081.679473514885	1
0	16710	4082.140735266343	0
0	16722	4083.439244584851	1
0	16724	4083.784329153356	2
0	16726	4084.227880043652	3
0	16727	4084.341465586009	2
0	16732	4084.406787322897	1
0	16738	4085.207292837279	2
0	16739	4086.05699955797	1
0	16746	4087.299435785253	2
0	16748	4087.602433058529	1
0	16753	4088.20527968122	0
0	16779	4093.958010428374	1
0	16780	4094.055729305431	0
0	16800	4097.193703642789	1
0	16801	4097.499791310734	0
0	16807	4097.634545419058	1
0	16808	4099.100260165898	0
0	16827	4101.312074645178	1
0	16828	4101.856735943451	0
0	16844	4102.833475082714	1
0	16846	4103.672059948655	2
0	16849	4104.244860753219	3
0	16850	4105.138077389262	2
0	16856	4105.808051841323	1
0	16862	4106.384194635032	2
0	16864	4106.580183802154	3
0	16866	4106.721517573502	4
0	16867	4107.489614409488	3
0	16875	4108.775159376996	2
0	16883	4109.773895271895	1
0	16888	4109.825860437838	0
0	16918	4113.275838802648	1
0	16922	4114.345818235027	2
0	16926	4114.759576398806	3
0	16927	4115.938027694432	2
0	16933	4116.244110220324	3
0	16936	4117.111733387667	2
0	16941	4117.346579182101	1
0	16947	4118.390908233914	0
0	16956	4120.68274902051	1
0	16960	4121.944851217359	2
0	16967	4122.60576088767	3
0	16968	4122.636405112027	2
0	16974	4122.718328341153	3
0	16975	4124.274572823419	2
0	16982	4124.604518327307	1
0	16988	4124.770199084433	2
0	16990	4126.028513437975	3
0	16992	4126.521058064173	4
0	16996	4127.529159886864	5
0	16997	4128.333468143657	4
0	17003	4129.124102953854	3
0	17009	4129.594905550907	4
0	17010	4129.883105573886	3
0	17015	4130.007974461474	2
0	17020	4130.491666900668	1
0	17026	4131.862809013554	0
0	17042	4134.255871296617	1
0	17044	4134.499159175853	2
0	17046	4134.531616796056	3
0	17053	4136.460828541913	2
0	17059	4137.734788890421	1
0	17064	4137.921688895064	0
0	17083	4138.90271848721	1
0	17085	4139.019235575779	2
0	17088	4140.266711062061	3
0	17091	4141.065740329291	2
0	17102	4143.745712177246	1
0	17107	4144.490021971733	0
0	17115	4145.827852731854	1
0	17118	4146.407740145881	0
0	17129	4146.56885457058	1
0	17130	4146.647336065506	0
0	17153	4152.776666255788	1
0	17155	4153.17988769867	2
0	17159	4155.80892814905	3
0	17161	4156.36628770626	4
0	17162	4156.565814473658	3
0	17171	4157.695043687282	4
0	17172	4159.143851071812	3
0	17180	4162.262636178172	2
0	17185	4162.433451768264	1
0	17191	4163.276903192235	0
0	17197	4164.151683901448	1
0	17199	4164.260073485122	2
0	17201	4164.601711745049	3
0	17203	4165.080323938701	4
0	17204	4165.233792203172	3
0	17211	4165.856915128127	2
0	17217	4166.003726913248	1
0	17226	4167.548221182924	0
0	17245	4171.117413801121	1
0	17247	4172.770633121581	0
0	17261	4174.775230786216	1
0	17262	4175.128497430632	0
0	17275	4177.248981425722	1
0	17277	4178.447852996692	2
0	17279	4178.576946067891	3
0	17283	4179.283187239886	4
0	17284	4179.427620244213	3
0	17290	4180.049227017039	2
0	17295	4180.940696397975	1
0	17300	4181.373736239642	0
0	17304	4181.899277112513	1
0	17312	4184.494590365741	2
0	17315	4187.193900442802	1
0	17325	4189.437383089433	2
0	17329	4189.956062319714	3
0	17330	4190.342592944738	2
0	17337	4191.726865205528	1
0	17344	4192.116675523579	2
0	17346	4193.338657782985	1
0	17351	4193.475275655357	0
0	17363	4195.678700551719	1
0	17368	4197.349638598115	2
0	17371	4198.42836140479	1
0	17376	4199.825774585414	0
0	17392	4200.579835870055	1
0	17396	4202.214540295152	0
0	17426	4206.425176325144	1
0	17429	4207.814682878606	0
0	17446	4210.046658532133	1
0	17449	4214.504336561028	0
0	17461	4218.094213989762	1
0	17462	4218.623223779499	0
0	17468	4218.813719818667	1
0	17469	4219.072850444284	0
0	17479	4221.200967456309	1
0	17480	4222.153401149126	0
0	17497	4224.791400635914	1
0	17499	4226.022429134653	0
0	17525	4232.139602689229	1
0	17526	4232.291999898691	0
0	17542	4238.164150856356	1
0	17543	4239.836577310775	0
0	17549	4240.899496079721	1
0	17550	4241.006433643835	0
0	17564	4242.212015769068	1
0	17566	4242.277114590709	2
0	17568	4243.219053706014	1
0	17575	4243.626960461334	2
0	17577	4244.506620759109	3
0	17578	4244.596515849782	2
0	17584	4245.073288940561	3
0	17586	4245.396054723126	2
0	17592	4246.154509503105	1
0	17598	4246.521585680851	2
0	17602	4249.128641751099	1
0	17612	4250.328829220516	2
0	17614	4250.461972036984	3
0	17615	4250.937862783902	2
0	17623	4252.431920997367	1
0	17628	4252.811590978217	0
0	17636	4254.443759798258	1
0	17638	4256.047641344291	2
0	17640	4256.778845382059	3
0	17641	4258.084521709041	2
0	17647	4258.774236094501	1
0	17653	4258.884773683574	2
0	17655	4259.87434410925	3
0	17659	4262.74722924457	2
0	17665	4262.899225215229	3
0	17666	4263.434924347831	2
0	17671	4264.278674272899	1
0	17675	4265.311312962769	2
0	17677	4265.416442316529	3
0	17679	4265.472164634291	4
0	17681	4266.825240485772	5
0	17683	4266.892693644817	6
0	17687	4268.244341309921	7
0	17688	4268.257622319789	6
0	17694	4269.251162036025	7
0	17701	4269.927944133879	8
0	17703	4270.238635955666	7
0	17711	4271.921181969549	6
0	17717	4272.57786652425	5
0	17722	4274.607945451305	4
0	17727	4274.646224545002	3
0	17732	4274.772045539868	2
0	17740	4275.949157697878	1
0	17746	4276.231810245353	2
0	17748	4277.806828273112	3
0	17749	4277.826633582332	2
0	17755	4278.385031478432	3
0	17757	4278.414625329581	4
0	17758	4278.73530338666	3
0	17763	4279.96862545012	2
0	17768	4281.90516391939	1
0	17772	4283.343226748645	2
0	17776	4284.917176959582	1
0	17782	4285.274648066593	0
0	17812	4292.83536721545	1
0	17813	4292.849429347271	0
0	17830	4295.055005753131	1
0	17831	4295.602522985667	0
0	17889	4310.727083723403	1
0	17891	4311.843023396808	2
0	17893	4311.955181419993	3
0	17894	4314.839090486871	2
0	17903	4316.80783490696	1
0	17908	4317.761731665632	0
0	17919	4318.005087848489	1
0	17920	4318.486562518703	0
0	17926	4318.512003532144	1
0	17927	4319.153809565241	0
0	17939	4321.501688729836	1
0	17942	4322.194730694804	0
0	17961	4325.508561775387	1
0	17969	4328.075152288777	0
0	17976	4329.964110380199	1
0	17978	4330.303781038665	0
0	17999	4332.38952552875	1
0	18000	4332.749268447551	0
0	18020	4335.039748764583	1
0	18021	4335.585552003391	0
0	18034	4336.398641017459	1
0	18035	4337.790843643332	0
0	18076	4344.063696409159	1
0	18077	4344.259696840054	0
0	18114	4358.433616225467	1
0	18115	4359.556067927557	0
0	18130	4361.790150134204	1
0	18131	4362.245272717346	0
0	18154	4365.688206929596	1
0	18156	4366.36906754442	0
0	18171	4368.942644534708	1
0	18172	4370.081502025788	0
0	18249	4410.817003774918	1
0	18251	4413.796859317899	2
0	18252	4414.732190209444	1
0	18257	4414.758632748368	0
0	18287	4425.495678925659	1
0	18291	4427.786504529246	0
0	18306	4428.792412710437	1
0	18310	4429.45209942361	0
0	18350	4434.495532000508	1
0	18352	4436.783556884305	0
0	18390	4449.764666728148	1
0	18394	4451.000885152617	2
0	18396	4451.765904807094	3
0	18397	4452.55945721326	2
0	18402	4453.462791510079	1
0	18408	4453.484047421408	2
0	18411	4454.473064918877	1
0	18417	4455.172653103512	2
0	18418	4455.471130806599	1
0	18423	4456.048633815486	0
0	18470	4466.160622570248	1
0	18471	4466.460206179495	0
0	18511	4481.392412469751	1
0	18513	4484.159658473743	0
0	18526	4485.938474651095	1
0	18529	4488.835735399833	0
0	18535	4489.724429849726	1
0	18538	4490.903514785529	0
0	18545	4491.783121454266	1
0	18546	4491.788579477502	0
0	18560	4494.321874063341	1
0	18561	4495.242922924477	0
0	18572	4495.424643309474	1
0	18578	4496.600567499096	0
0	18584	4496.647582313495	1
0	18586	4496.897753687921	2
0	18588	4497.101859896736	3
0	18589	4497.717531774688	2
0	18595	4498.178983065496	1
0	18600	4498.218272396871	0
0	18656	4511.067575470185	1
0	18657	4511.198342259296	0
0	18704	4522.630416951895	1
0	18706	4523.227248902008	2
0	18711	4525.931112379376	1
0	18716	4526.299104315297	0
0	18729	4527.947201994769	1
0	18730	4528.136777567059	0
0	18759	4532.031249108191	1
0	18760	4532.42705609981	0
0	18766	4532.842359406341	1
0	18768	4533.37480835669	0
0	18815	4549.306721882938	1
0	18817	4549.699980597203	2
0	18820	4550.081793558914	1
0	18826	4551.251651890775	2
0	18828	4551.89061073344	1
0	18836	4552.69174812531	0
0	18853	4553.663569384994	1
0	18854	4555.180919154409	0
0	18897	4566.250997875548	1
0	18902	4570.480898389124	0
0	18908	4571.333348981098	1
0	18910	4571.758529999079	2
0	18911	4571.981068981933	1
0	18919	4574.5884564873	2
0	18921	4575.128186854468	3
0	18922	4575.799090906425	2
0	18929	4577.521523113605	3
0	18930	4578.159380702593	2
0	18937	4579.246658960612	3
0	18939	4579.307204870443	4
0	18942	4580.136929873806	3
0	18948	4580.843391184128	2
0	18956	4582.463247177047	1
0	18961	4582.837273610757	0
0	18988	4587.518201667314	1
0	18989	4588.914125192628	0
0	19009	4594.871801228527	1
0	19010	4595.086586119856	0
0	19036	4600.949975591887	1
0	19038	4601.420632072415	0
0	19052	4603.168166779588	1
0	19058	4604.728326237986	0
0	19120	4621.777652145895	1
0	19121	4622.139188037505	0
0	19135	4625.352592169294	1
0	19136	4625.472044309387	0
0	19148	4626.182739121618	1
0	19152	4628.392314798841	2
0	19154	4629.096244200384	3
0	19155	4629.11197159045	2
0	19162	4630.14006146597	1
0	19169	4631.998182594832	0
0	19199	4645.297316575708	1
0	19200	4645.594446285143	0
0	19216	4649.356789044702	1
0	19220	4649.678680077301	0
0	19229	4651.16540455704	1
0	19232	4651.851239332569	2
0	19234	4652.756246806319	3
0	19236	4654.052801749521	4
0	19237	4654.567670930236	3
0	19242	4654.630842336536	2
0	19247	4655.02778245872	1
0	19252	4655.121376372661	0
0	19308	4664.478454355034	1
0	19309	4664.696158146972	0
0	19356	4671.935885768749	1
0	19358	4671.975779140398	2
0	19359	4672.099111071466	1
0	19366	4673.917667515317	2
0	19367	4673.943437741196	1
0	19372	4674.757658091193	0
0	19381	4676.206260736976	1
0	19382	4676.214601656683	0
0	19388	4676.242171858001	1
0	19390	4677.652122603238	0
0	19407	4678.836075509637	1
0	19410	4680.074865784344	0
0	19439	4683.381236267709	1
0	19442	4684.355614363747	2
0	19445	4685.469588139368	1
0	19451	4685.77378160143	0
0	19467	4692.626697381713	1
0	19471	4694.190485798675	2
0	19472	4694.469153481504	1
0	19479	4697.587461997449	0
0	19491	4699.205986541871	1
0	19493	4699.595382856625	2
0	19496	4703.810620148833	1
0	19502	4703.958403020156	0
0	19529	4708.637068453806	1
0	19531	4708.678237901268	2
0	19532	4709.042076163753	1
0	19537	4709.302148575175	0
0	19556	4710.691330661898	1
0	19559	4712.224650892566	0
0	19567	4712.255447779779	1
0	19571	4713.685698834015	2
0	19572	4713.688573192278	1
0	19580	4715.347212029171	0
0	19615	4722.2098564477	1
0	19618	4723.07074941421	0
0	19629	4724.211935560403	1
0	19631	4724.876224218648	2
0	19632	4727.438544034696	1
0	19638	4727.731294742923	2
0	19641	4728.531824465725	1
0	19646	4728.691300466596	0
0	19652	4729.416566916767	1
0	19655	4731.107700972225	0
0	19668	4732.107799546924	1
0	19671	4733.348858876078	2
0	19672	4733.469652550185	1
0	19679	4733.968760114879	0
0	19705	4747.841851331731	1
0	19708	4750.344730790047	0
0	19729	4751.893835996944	1
0	19730	4752.208766786348	0
0	19736	4752.373183127661	1
0	19737	4753.410074937621	0
0	19763	4758.12588152147	1
0	19766	4758.682556890176	2
0	19767	4758.848664162197	1
0	19772	4759.093313867723	0
0	19815	4767.91725599763	1
0	19818	4768.921066171861	2
0	19819	4769.283928893633	1
0	19825	4771.948702679918	0
0	19854	4775.828533258333	1
0	19857	4778.650550426549	0
0	19905	4791.828447603139	1
0	19907	4793.239583348146	0
0	19929	4796.358680539813	1
0	19930	4797.165576626773	0
0	19936	4797.48969596577	1
0	19938	4798.141707879229	0
0	19947	4800.764402150959	1
0	19948	4800.950666601579	0
0	19956	4801.798686625649	1
0	19962	4804.488090774258	0
0	19973	4807.79298918335	1
0	19976	4808.083333845947	0
0	19983	4808.555088249572	1
0	19984	4809.365256611617	0
0	19990	4809.858324099886	1
0	19991	4810.432050898446	0
0	20020	4816.865148360519	1
0	20021	4817.632510338917	0
0	20027	4817.796489661194	1
0	20029	4818.597383323306	0
0	20035	4819.249912865679	1
0	20037	4819.727324010578	0
0	20057	4822.540269999757	1
0	20058	4822.72534334331	0
0	20067	4823.179290353653	1
0	20070	4824.780017800915	0
0	20093	4829.672491870699	1
0	20095	4831.348178219865	0
0	20106	4832.375509235828	1
0	20107	4832.758307288763	0
0	20130	4835.364617565673	1
0	20131	4836.150558485325	0
0	20153	4841.186500709826	1
0	20156	4842.127745093351	0
0	20182	4845.937387377553	1
0	20186	4848.092562073138	2
0	20189	4848.645139413982	1
0	20195	4848.777139318057	2
0	20196	4849.085910228718	1
0	20201	4849.478889168309	0
0	20292	4868.961407850514	1
0	20293	4869.473107722136	0
0	20308	4873.416136060291	1
0	20309	4873.538872976345	0
0	20325	4876.221676520872	1
0	20328	4876.705411748973	2
0	20333	4878.456430032892	1
0	20339	4879.658504611921	0
0	20350	4880.173973195538	1
0	20352	4880.626319010291	2
0	20353	4880.963967252147	1
0	20360	4882.2217579585	2
0	20363	4883.075379383195	1
0	20369	4883.664644350404	0
0	20375	4883.822270637983	1
0	20378	4886.392410086394	2
0	20379	4886.593552612442	1
0	20385	4889.846226682163	0
0	20399	4891.899312641633	1
0	20400	4892.26499162129	0
0	20412	4893.505964642892	1
0	20414	4893.642121496001	2
0	20415	4893.923738161039	1
0	20421	4894.480386075119	0
0	20433	4894.79204646151	1
0	20434	4895.515969981274	0
0	20447	4901.746869323949	1
0	20449	4902.109677171456	2
0	20450	4902.724844768475	1
0	20456	4903.636421136365	2
0	20458	4903.641342933282	3
0	20460	4904.619975625079	2
0	20465	4905.030498328649	1
0	20470	4905.398345857792	0
0	20495	4911.187562097814	1
0	20500	4911.689562651805	2
0	20501	4912.536667246158	1
0	20506	4912.852150075517	0
0	20526	4914.016193901351	1
0	20531	4917.19924336247	2
0	20533	4917.39625007889	3
0	20534	4919.768796711766	2
0	20539	4919.925234120554	1
0	20545	4920.47337347243	0
0	20551	4920.862297372267	1
0	20552	4921.677629017713	0
0	20568	4923.355741882914	1
0	20570	4924.370395313935	2
0	20572	4925.962793198169	3
0	20575	4926.443086493353	2
0	20582	4926.632166928801	1
0	20587	4927.905722709535	0
0	20621	4932.909531308863	1
0	20622	4933.496033494994	0
0	20646	4940.206751009887	1
0	20648	4941.824188442853	0
0	20661	4943.608876683436	1
0	20662	4943.904135408983	0
0	20691	4951.810732083709	1
0	20694	4952.848626037825	0
0	20703	4953.487116756371	1
0	20708	4955.197645743595	2
0	20709	4955.959396008338	1
0	20715	4955.99721926124	2
0	20718	4957.20650325709	1
0	20723	4957.393557463802	0
0	20730	4957.422913223127	1
0	20732	4957.919195458484	2
0	20733	4958.785937759441	1
0	20741	4961.618270623435	0
0	20756	4964.471846631978	1
0	20757	4964.666333359224	0
0	20826	4984.21869769293	1
0	20830	4985.000433347992	2
0	20831	4985.109289271303	1
0	20837	4985.85675139241	0
0	20852	4988.266486303524	1
0	20856	4989.608408520307	0
0	20890	4993.212128442105	1
0	20894	4994.99784945287	2
0	20895	4996.059904509642	1
0	20901	4996.186067716132	2
0	20903	4996.495930200546	3
0	20905	4996.576010897825	2
0	20913	4997.964052733655	1
0	20920	4999.331396012887	2
0	20922	4999.858982747821	1
0	20928	4999.914490691763	2
0	20929	5001.214977665615	1
0	20936	5001.570346655142	2
0	20938	5001.841692341078	3
0	20939	5002.771085707853	2
0	20945	5003.258526265866	1
0	20950	5003.362039024003	0
0	20963	5004.264115817338	1
0	20968	5006.360904245877	0
0	20974	5006.606898501005	1
0	20975	5006.810196638066	0
0	20994	5008.480241524333	1
0	20997	5009.448180653437	2
0	20999	5011.732355362269	1
0	21004	5011.817509202269	0
0	21012	5014.0135940073	1
0	21016	5014.611700921237	2
0	21017	5015.325469790947	1
0	21023	5015.590997896571	0
0	21033	5017.541090059533	1
0	21035	5017.66273587915	2
0	21036	5017.750827319415	1
0	21041	5018.179806403086	0
0	21065	5019.783025441431	1
0	21066	5020.010649748187	0
0	21072	5020.341353539915	1
0	21074	5020.957703201369	0
0	21080	5021.378009526578	1
0	21081	5021.425442792692	0
0	21104	5032.225696724562	1
0	21110	5035.101844714147	2
0	21112	5035.245143791204	3
0	21114	5035.940509935958	4
0	21115	5036.078606827997	3
0	21122	5036.76584110196	4
0	21124	5036.860250136233	3
0	21130	5037.092417566363	2
0	21136	5037.359691502404	3
0	21140	5038.608654895497	2
0	21149	5040.212169142996	3
0	21150	5041.239697457994	2
0	21156	5042.382167048574	3
0	21157	5043.457797504565	2
0	21163	5043.807114183812	1
0	21172	5045.622758447953	2
0	21177	5047.344442998485	1
0	21185	5048.32169265347	0
0	21191	5049.081167142654	1
0	21192	5049.236977951583	0
0	21236	5056.279376969709	1
0	21240	5057.260792124692	2
0	21242	5057.300661548713	3
0	21244	5058.01347474822	2
0	21250	5058.930660014192	1
0	21255	5059.308026486199	0
0	21282	5062.018243090541	1
0	21283	5062.295611429659	0
0	21314	5072.148145790135	1
0	21316	5072.647723912543	2
0	21317	5073.715739362799	1
0	21327	5075.111608240244	0
0	21333	5075.551661598512	1
0	21335	5076.133000437779	2
0	21337	5078.563339550343	1
0	21342	5079.07367300266	0
0	21363	5082.10534246538	1
0	21365	5082.18013500589	2
0	21368	5082.938322465741	3
0	21370	5082.947900292215	4
0	21372	5085.14493883941	5
0	21373	5086.980533423656	4
0	21379	5087.56957308782	5
0	21381	5087.931251377722	4
0	21387	5089.063495811737	3
0	21392	5089.316099969624	2
0	21397	5089.549068559542	1
0	21402	5089.788856525683	0
0	21415	5091.650331513444	1
0	21416	5091.654187901987	0
0	21433	5093.02343491348	1
0	21437	5093.388129281073	0
0	21473	5103.863241008803	1
0	21475	5103.94055176889	2
0	21476	5104.118118942022	1
0	21484	5104.713064403902	2
0	21485	5105.623218249515	1
0	21494	5107.516892946187	0
0	21519	5111.108952386145	1
0	21521	5111.131177491214	2
0	21523	5111.160584258369	3
0	21525	5111.649505525498	4
0	21526	5112.154127627302	3
0	21532	5112.858214480265	2
0	21537	5113.509319351419	1
0	21545	5114.952020908035	2
0	21547	5115.938434855052	3
0	21549	5116.087258397668	4
0	21550	5117.291529766317	3
0	21556	5118.403941980116	2
0	21566	5120.589497723401	1
0	21572	5121.630682347855	0
0	21595	5128.552608867224	1
0	21596	5130.295729511333	0
0	21607	5132.519613642073	1
0	21611	5133.539144959604	2
0	21612	5133.818552453195	1
0	21617	5134.744628889638	0
0	21624	5135.043181343684	1
0	21628	5135.901751512232	2
0	21629	5135.965543267538	1
0	21634	5136.084266995855	0
0	21647	5137.135632374944	1
0	21650	5138.7839628241	2
0	21651	5139.281652842307	1
0	21656	5139.675645141814	0
0	21695	5145.344631344403	1
0	21697	5145.613223658518	2
0	21700	5148.113262667801	1
0	21710	5149.158806407443	0
0	21735	5152.61963083528	1
0	21738	5153.469750277584	2
0	21739	5154.143389721144	1
0	21744	5155.309661362153	0
0	21759	5158.244471412339	1
0	21762	5159.147757227964	0
0	21768	5159.194213754004	1
0	21770	5159.721893188182	0
0	21783	5160.301584374677	1
0	21784	5160.433191440673	0
0	21810	5168.815991407531	1
0	21813	5170.528896079888	2
0	21814	5171.359659474058	1
0	21819	5171.987660842849	0
0	21825	5172.140095503044	1
0	21826	5172.311200580619	0
0	21839	5178.221478371699	1
0	21840	5178.616867551611	0
0	21854	5181.352013780332	1
0	21855	5183.087078620229	0
0	21888	5190.923061529489	1
0	21890	5191.388150193897	2
0	21891	5191.400935640297	1
0	21897	5191.536562757278	2
0	21899	5192.324502957409	3
0	21901	5193.010875598975	4
0	21902	5193.869504037044	3
0	21907	5193.884351297057	2
0	21912	5196.312619026885	1
0	21916	5196.82780840649	2
0	21919	5198.469725650242	1
0	21925	5200.678795447219	2
0	21926	5201.567408543369	1
0	21933	5203.096624035101	0
0	21945	5208.469064779446	1
0	21946	5208.961281933191	0
0	21952	5210.454548359586	1
0	21954	5211.24751422344	2
0	21957	5213.317529207883	1
0	21967	5215.954241374195	0
0	21982	5220.397459497176	1
0	21983	5221.43755684795	0
0	21989	5221.668591728529	1
0	21991	5221.832537052519	2
0	21992	5221.969773122498	1
0	21996	5222.018437146122	2
0	21999	5222.515816620767	1
0	22003	5223.259535807999	2
0	22005	5223.379002157201	3
0	22008	5223.456817114043	2
0	22014	5225.167284338126	1
0	22021	5225.676619572832	0
0	22040	5229.656703689315	1
0	22042	5230.299284124465	2
0	22043	5231.113020100098	1
0	22048	5232.23180681838	0
0	22059	5232.852909660467	1
0	22060	5232.970307401771	0
0	22064	5233.192304157191	1
0	22070	5235.236868468174	0
0	22077	5237.023223912622	1
0	22078	5237.322153488522	0
0	22096	5240.132789984203	1
0	22097	5240.787962903238	0
0	22103	5243.439812662946	1
0	22104	5243.506433459712	0
0	22108	5243.955221928055	1
0	22111	5244.792593467099	0
0	22134	5248.068049565307	1
0	22135	5248.508868494538	0
0	22193	5261.149244990328	1
0	22195	5262.909270452384	2
0	22196	5264.526926925785	1
0	22201	5264.637230718443	0
0	22283	5281.791621563208	1
0	22287	5283.619478908451	2
0	22290	5285.271774236622	1
0	22297	5286.059466956918	2
0	22300	5287.478714858551	1
0	22308	5290.055324491377	0
0	22317	5290.71858111106	1
0	22323	5292.420020103143	0
0	22335	5294.971069650106	1
0	22336	5295.041743276761	0
0	22346	5297.134853423594	1
0	22349	5297.703779917167	0
0	22383	5311.343601121077	1
0	22385	5311.348200939101	2
0	22389	5314.187143800021	1
0	22394	5314.661492134459	0
0	22405	5315.356643714474	1
0	22406	5315.758023418019	0
0	22424	5318.248468133495	1
0	22427	5318.649565329907	0
0	22438	5319.710776958203	1
0	22441	5319.805956611119	0
0	22551	5353.834354403704	1
0	22553	5355.183786184117	0
0	22629	5375.310141573654	1
0	22630	5376.364971313204	0
0	22636	5376.938631628124	1
0	22641	5377.706475599677	2
0	22642	5378.963378918396	1
0	22647	5379.185035694822	0
0	22675	5383.468809936667	1
0	22677	5384.672208990621	2
0	22679	5385.1276234884	3
0	22680	5385.528201768942	2
0	22687	5386.528902239667	1
0	22694	5387.793488296433	0
0	22749	5404.354620526461	1
0	22750	5405.112142343579	0
0	22760	5410.37492613329	1
0	22761	5410.963522027217	0
0	22767	5411.290437851889	1
0	22768	5412.230751570376	0
0	22802	5418.991248875068	1
0	22804	5419.380573006817	0
0	22820	5421.880100263411	1
0	22825	5422.58243162998	2
0	22826	5423.435457575139	1
0	22831	5423.905829300609	0
0	22859	5430.211091822459	1
0	22864	5432.602876894505	2
0	22866	5433.298549975704	1
0	22874	5434.12320139275	0
0	22948	5454.585988235162	1
0	22950	5454.701853384174	2
0	22953	5455.194025645088	1
0	22959	5456.056653538421	0
0	23027	5474.181396154013	1
0	23028	5474.968726921663	0
0	23042	5480.277002780561	1
0	23043	5481.09948604799	0
0	23128	5508.404542498173	1
0	23131	5511.028519441258	0
0	23142	5512.504164286496	1
0	23150	5514.883254264851	2
0	23151	5516.136717191802	1
0	23157	5516.137557394682	2
0	23158	5517.513261998727	1
0	23164	5519.065386788646	0
0	23179	5520.082924713701	1
0	23180	5520.338689502998	0
0	23188	5520.548497990748	1
0	23191	5521.734737498113	2
0	23192	5521.894596658251	1
0	23197	5522.725377887098	0
0	23203	5522.920992032284	1
0	23209	5527.201787411384	0
0	23276	5546.578345125576	1
0	23279	5547.703227775025	2
0	23281	5548.024039010789	1
0	23286	5548.697004817994	0
0	23301	5550.703387492871	1
0	23308	5552.354902285704	0
0	23343	5561.04686091964	1
0	23345	5563.734997050163	2
0	23348	5564.887012733154	1
0	23353	5565.45937091106	0
0	23360	5565.957815777245	1
0	23362	5567.181204933794	0
0	23374	5570.008902950076	1
0	23379	5572.911935520368	0
0	23393	5577.251164079922	1
0	23398	5577.951924774727	2
0	23399	5578.917920148087	1
0	23407	5580.1944093352	0
0	23421	5584.559731778569	1
0	23422	5584.675786438513	0
0	23429	5584.858394305927	1
0	23430	5585.485194541231	0
0	23441	5586.140498712282	1
0	23443	5586.533180031189	2
0	23448	5589.756022794583	1
0	23455	5589.967003875795	2
0	23456	5590.654962901605	1
0	23461	5592.166774954544	0
0	23482	5594.358613606873	1
0	23484	5595.139484421334	2
0	23487	5595.53373432266	3
0	23489	5596.679305009264	2
0	23495	5596.853038484435	3
0	23497	5597.663731351457	4
0	23503	5600.730636433713	3
0	23509	5601.252036086862	4
0	23515	5604.865407482007	3
0	23522	5605.616408290349	2
0	23529	5606.73212205891	1
0	23536	5608.475350149885	2
0	23537	5608.70922729677	1
0	23543	5608.821132732769	2
0	23545	5608.838084087723	3
0	23547	5611.535501419989	2
0	23553	5611.93531620259	3
0	23555	5612.334701330625	2
0	23560	5613.750349587866	1
0	23566	5614.392719077714	0
0	23584	5617.168540060463	1
0	23585	5617.339001098569	0
0	23602	5618.619759691653	1
0	23603	5619.400821128539	0
0	23614	5619.874981986509	1
0	23619	5621.565069768639	0
0	23625	5621.759831022534	1
0	23627	5622.164372271161	0
0	23680	5634.798585141748	1
0	23684	5636.430433888068	2
0	23686	5637.903840500922	1
0	23695	5638.428787071997	0
0	23725	5643.456540693872	1
0	23729	5644.538529268687	2
0	23731	5645.281939118635	3
0	23735	5645.474259207484	4
0	23737	5646.733106027518	3
0	23742	5647.79053151869	2
0	23747	5647.964465709151	1
0	23753	5648.031628852112	2
0	23756	5649.823495696015	1
0	23762	5650.272546274762	2
0	23763	5651.637052968331	1
0	23770	5652.579002959502	0
0	23790	5654.444717021022	1
0	23796	5655.488237054113	0
0	23840	5662.226547984679	1
0	23844	5664.251660116302	0
0	23880	5674.748859708021	1
0	23881	5676.235467031073	0
0	23923	5689.817273465974	1
0	23925	5690.000826966267	2
0	23927	5690.365636351778	3
0	23929	5691.241594551802	4
0	23931	5692.160599507031	5
0	23935	5696.115579686198	6
0	23941	5697.308543776451	7
0	23943	5699.214825413406	8
0	23944	5700.782956951804	7
0	23951	5701.837582644379	8
0	23953	5703.057088014106	7
0	23958	5703.526000162209	6
0	23964	5703.57298484511	7
0	23966	5704.110950003377	8
0	23969	5705.114081146778	7
0	23978	5707.394405469475	6
0	23984	5708.144630133577	5
0	23990	5708.351669204891	6
0	23992	5708.640382392136	7
0	23994	5708.839577293121	8
0	23999	5710.398997342859	9
0	24000	5711.032900289707	8
0	24006	5711.280163757687	9
0	24010	5711.926954724206	10
0	24012	5712.356286186427	11
0	24013	5712.496448614732	10
0	24019	5713.434237333058	9
0	24024	5714.22178696482	8
0	24029	5714.271365447799	7
0	24037	5714.635689083404	8
0	24039	5715.24299988921	7
0	24044	5715.477607330113	6
0	24049	5715.604921085518	5
0	24056	5718.111512850818	4
0	24061	5718.908522862787	3
0	24067	5720.324679370852	2
0	24072	5720.447503503154	1
0	24080	5724.060500018337	0
0	24100	5727.99348350833	1
0	24106	5730.495629724423	2
0	24107	5730.608392023641	1
0	24113	5731.357310823065	0
0	24134	5735.231628654379	1
0	24136	5736.264024434219	2
0	24137	5737.305143864847	1
0	24142	5738.111148128624	0
0	24156	5742.015266316855	1
0	24157	5742.04182049439	0
0	24180	5746.770757766805	1
0	24181	5747.839964954199	0
0	24195	5750.573910618579	1
0	24198	5754.724547084968	0
0	24209	5755.783432927442	1
0	24210	5756.414232655045	0
0	24222	5760.814398771756	1
0	24228	5763.418076622867	0
0	24269	5775.824981985807	1
0	24272	5777.330314691376	0
0	24298	5781.873956931915	1
0	24300	5782.228474114379	2
0	24304	5784.997943498589	1
0	24312	5785.619114702284	0
0	24320	5785.912414934382	1
0	24321	5786.528209010566	0
0	24350	5798.326036800561	1
0	24353	5799.237329679313	2
0	24354	5799.254493628221	1
0	24361	5799.455020031252	2
0	24364	5800.797098683741	1
0	24370	5800.956668547479	2
0	24375	5801.156751394815	3
0	24377	5803.250672843447	4
0	24379	5803.772841620173	5
0	24380	5804.15865849147	4
0	24385	5804.529503883793	3
0	24392	5804.936537130522	4
0	24393	5805.434523758096	3
0	24398	5806.48253332459	2
0	24405	5807.28940430933	1
0	24410	5807.772936503201	0
0	24429	5810.854778894458	1
0	24430	5812.17317621854	0
0	24437	5812.951540216372	1
0	24440	5813.363403058959	2
0	24443	5815.481138784798	1
0	24448	5815.629385621459	0
0	24462	5820.254816514123	1
0	24465	5821.155476079989	0
0	24503	5828.921493850357	1
0	24504	5829.032887701313	0
0	24604	5853.305638023481	1
0	24605	5855.947329832542	0
0	24637	5860.139379011195	1
0	24638	5861.914088255391	0
0	24685	5872.976635304784	1
0	24688	5874.167279171111	0
0	24695	5875.980076327694	1
0	24696	5876.379488025079	0
0	24704	5878.828503072797	1
0	24706	5880.857202877944	0
0	24798	5905.737928060513	1
0	24802	5906.632159563155	2
0	24805	5907.919982135074	1
0	24810	5908.308856036535	0
0	24837	5909.784064541819	1
0	24841	5912.324220417303	2
0	24842	5912.510320288264	1
0	24848	5912.798142417442	2
0	24850	5913.661512553237	3
0	24852	5914.423088490991	4
0	24854	5915.027973950871	5
0	24858	5915.277006924859	6
0	24859	5915.494384398563	5
0	24867	5916.210768699089	6
0	24868	5917.072596793228	5
0	24873	5917.271900825275	4
0	24881	5918.850550322745	3
0	24887	5920.168490308214	2
0	24892	5920.743395564047	1
0	24898	5920.836738537195	2
0	24900	5922.58235692503	3
0	24902	5922.789051914484	4
0	24903	5922.902912315459	3
0	24908	5922.93876828484	2
0	24913	5923.398892612837	1
0	24920	5925.76057651318	0
0	24928	5926.503463989131	1
0	24930	5926.66363306495	2
0	24931	5928.300479289557	1
0	24936	5930.125955403166	0
0	24940	5931.184223042677	1
0	24943	5931.341774912031	0
0	24964	5935.130978416661	1
0	24965	5935.377537070116	0
0	24979	5937.883542041634	1
0	24981	5938.683277918194	0
0	25040	5947.091263488895	1
0	25042	5948.303711348457	0
[...]
5	116310	27750.283658744477	24.235069126022
5	116317	27753.515220803844	15.671325139835
5	116336	27761.167335435435	22.623587007372
5	116369	27767.795558462016	28.254123548811
5	116388	27771.681971984811	27.225430223366
5	116393	27772.997824579363	23.490560159424
5	116398	27773.269080796416	16.975172146424
5	116405	27777.031845466728	15.132390454815
5	116458	27785.954594264149	20.108888744791
5	116462	27786.108615072206	5.242109238976
5	116499	27791.815053031675	0.95426739483
5	116509	27794.951740082514	3.486722468954
5	116828	27865.433210420753	68.605328454781
5	116836	27866.588462827092	69.287499718903
5	116856	27869.793652884895	71.834250439026
5	116871	27873.394040149998	67.551806344334
5	116931	27883.337158126054	73.305222203905
5	116937	27884.07351245928	72.294509963386
5	116944	27884.975045609779	67.171287416547
5	116960	27888.214613907111	58.068403498311
5	116968	27891.003132958841	60.606018450003
5	116978	27891.695157181976	59.47576042887
5	116985	27894.283373475997	52.269872069538
5	116990	27894.669833960863	51.998098101946
5	116997	27897.052760089751	44.393746512817
5	117002	27899.380002848088	40.82132906187
5	117009	27900.571970856152	39.34083958962
5	117021	27903.555384118821	39.634822290912
5	117028	27904.838166852937	37.660070707384
5	117034	27905.034241448534	37.827907710686
5	117045	27909.298579978003	39.719663892601
5	117078	27912.574672741938	33.370264358837
5	117103	27916.525863934339	34.847054174949
5	117111	27921.591265484516	39.676638813507
5	117122	27923.322562492414	41.301574122111
5	117135	27923.641630536395	38.097416464699
5	117144	27925.939578263657	40.161431792773
5	117155	27926.761574222972	31.873760016375
5	117166	27931.161695218532	29.652085345427
5	117213	27939.897125697509	35.939453430279
5	117227	27943.837433269475	35.350694436415
5	117232	27944.102155820586	34.324963651195
5	117239	27944.568743727023	32.077242794496
5	117246	27945.956864925463	32.890805108388
5	117255	27949.419780137866	35.250264031591
5	117289	27954.061240719056	38.25437377065
5	117296	27954.928117058522	37.633670754524
5	117301	27955.210279900513	33.57979598678
5	117308	27956.741304979379	34.437265789375
5	117317	27959.780766149971	35.23722711962
5	117330	27962.011659122481	30.27927149724
5	117335	27962.033288714383	19.106467023731
5	117340	27965.128284870807	20.597897817363
5	117345	27967.268434114125	21.556837094608
5	117352	27969.271578596401	19.133897948929
5	117368	27972.931849633032	22.540886917651
5	117388	27976.310765790838	24.401917851022
5	117410	27978.937532710444	24.424282898992
5	117416	27979.12034076768	22.871534918684
5	117431	27982.781919645622	24.264742038322
5	117482	27993.264909731722	22.417368581424
5	117493	27995.343740783596	22.019057042686
5	117513	27998.80473748684	17.999244300467
5	117525	27999.771980344809	16.830117017444
5	117549	28009.69294461024	21.35926411316
5	117634	28023.882943834278	30.381026371619
5	117652	28026.188342336807	24.055620595841
5	117661	28026.646685047052	24.471620459175
5	117678	28028.390913718782	25.604976734865
5	117683	28028.614044374711	5.824019978788
5	117705	28033.280557578325	9.404985798455
5	117765	28044.979277053869	20.87797230775
5	117772	28046.363767455342	15.418724297842
5	117781	28048.185128953619	3.758270617987
5	117786	28051.84951506073	4.480029159867
5	117790	28054.203519111919	6.086159391444
5	117813	28057.496258814187	0.116993888437
5	117832	28061.606118465794	0.424129142406
5	117885	28071.210459667787	8.330961010174
5	117890	28071.217789932253	7.642367124171
5	117901	28075.228786166191	7.542972697154
5	117954	28083.899850306823	14.549560537625
5	118101	28118.198975476406	30.685709147682
5	118106	28120.009431969346	30.206334298536
5	118114	28121.914106033252	13.660561501643
5	118119	28122.36101279375	9.339525195259
5	118124	28123.404561019233	5.473395896911
5	118128	28125.272781866787	4.183141202654
5	118139	28128.888720905236	3.288447672268
5	118143	28129.52351769641	2.625879281613
5	118204	28143.817468225403	7.169147137145
5	118211	28145.326065447276	6.333542447321
5	118230	28148.79696097969	8.218183017921
5	118242	28151.49396577306	4.427930552349
5	118246	28151.495791909536	3.821369974526
5	118255	28153.700817140734	0.59647816339
5	118266	28155.22025773463	0.799978889432
5	118366	28171.976124482146	10.92722822583
5	118395	28178.724063363652	15.618883966312
5	118405	28179.399524851486	11.252248766545
5	118413	28181.607397170718	11.15374734691
5	118426	28184.313210444935	6.326577081508
5	118458	28189.266534009858	9.691692537246
5	118467	28189.774536258248	7.266523539125
5	118529	28201.717201632228	16.261178732159
5	118555	28205.650356895852	15.629320855358
5	118560	28206.679936506372	15.94961710539
5	118565	28207.488809871463	15.066287731144
5	118570	28207.524686356303	4.796221520547
5	118575	28207.691511574474	4.808792105063
5	118586	28212.110877459068	8.290046221712
5	118621	28219.014299866346	7.083332424023
5	118644	28220.322022446197	3.581152115899
5	118649	28220.599756917686	3.163250680121
5	118657	28223.12873938154	0.882831053897
5	118675	28230.583333065199	5.920936820835
5	118718	28237.589264137447	12.691565432938
5	118728	28240.496682017937	6.795979702604
5	118735	28243.958994638659	9.455871588348
5	118764	28248.753502042704	0.198125447476
5	118776	28252.721281785286	3.18899832241
5	118797	28258.789901925687	0.375400282928
5	118806	28261.729539769628	2.068082310528
5	118841	28273.080451475547	0.790310345074
5	118853	28277.74741952389	0.486716352212
5	118866	28281.652259346076	1.631783340921
5	118875	28282.450370480682	1.675314636896
5	118905	28292.875333838507	3.965833304501
5	118958	28302.498651717962	1.271829132342
5	118968	28303.503177245668	1.504136728157
5	118977	28304.781277953981	2.472258420007
5	118995	28309.367282676052	2.205868632491
5	119006	28312.453836740425	3.966364020161
5	119014	28322.593822781058	4.728495031369
5	119030	28329.10164913927	3.258124319077
5	119058	28336.69968795725	1.884036742241
5	119154	28374.240952846454	9.268585636398
5	119160	28376.654432920743	4.861746843924
5	119167	28379.008456682423	6.629851322504
5	119184	28388.632313278659	2.142386713505
5	119235	28397.067650610325	1.046156567305
5	119259	28400.663160408979	3.581610684366
5	119263	28400.986494861909	1.167885351979
5	119327	28412.575519862827	5.88353522284
5	119370	28422.560834606652	15.693941986373
5	119412	28429.736990048928	22.839023704473
5	119417	28431.167636256661	23.365256958849
5	119428	28432.593705045211	16.358637009925
5	119449	28436.787370090891	19.941578552906
5	119459	28437.415945208263	19.767411477687
5	119477	28439.167101019023	4.736542090107
5	119481	28439.55384966084	2.507118463896
5	119529	28462.913104246932	0.034159867493
5	119546	28468.298668309123	1.686882796288
5	119604	28480.479740949991	2.157159659446
5	119618	28481.572637717517	2.29788289625
5	119655	28487.044751867272	1.041443228379
5	119713	28500.756576131651	4.341463151604
5	119739	28505.46495425431	7.843002432705
5	119755	28509.280100197496	10.531984485694
5	119776	28514.700706749952	7.319764835302
5	119924	28546.936066260266	36.112798389874
5	119943	28550.16422169766	38.479157599504
5	119948	28550.731582694357	30.905962433686
5	119955	28553.616539297778	25.904462624771
5	119965	28555.899377040431	17.181405212036
5	119988	28560.209541312322	11.747562482773
5	120005	28564.873334869283	9.996583223363
5	120014	28566.051380091323	7.732095272292
5	120035	28568.520848915133	7.724434617989
5	120041	28569.026429462073	7.290805436155
5	120052	28573.948158630991	7.669747167016
5	120095	28585.092241535604	17.938222821008
5	120100	28585.341461171399	13.217083052783
5	120105	28586.87467566947	8.744979837675
5	120115	28588.584664317361	6.700870260118
5	120125	28589.27788467589	6.291002744698
5	120132	28594.071977369945	7.02054899558
5	120140	28595.611743537488	2.648230656979
5	120194	28605.769904623466	3.491312921588
5	120237	28618.024289362261	2.758189865293
5	120245	28620.861259418477	0.941673728125
5	120260	28623.658483484175	0.424347009855
5	120356	28646.777699216446	4.875067879711
5	120376	28648.467570708742	2.137121681347
5	120390	28653.319478747525	6.16953329303
5	120399	28659.886241735343	12.14825617453
5	120404	28661.012203225256	5.958711563232
5	120411	28665.179386021764	6.944672013807
5	120416	28667.757887373472	6.668316931054
5	120514	28700.633887301571	15.274591771363
5	120542	28707.731100648972	11.703636329917
5	120546	28708.311552743886	11.487519587651
5	120554	28710.382120527587	1.383887752653
5	120561	28711.075463647643	0.504544514009
5	120593	28731.420337718073	3.718958686269
5	120606	28735.070606858926	2.168461428017
5	120613	28738.717198500056	3.744621604148
5	120665	28757.434615631442	0.69083457604
5	120682	28759.694976046802	1.162501562354
5	120721	28765.122120658935	0.281133493678
5	120725	28765.147924429307	0.052517876857
5	120734	28766.090118101609	0.400722731013
5	120748	28769.877983992548	1.05667192053
5	120757	28772.457509506453	3.204443225408
5	120774	28776.571987520682	0.031404485954
5	120820	28790.803674239772	0.190491493743
5	120843	28795.119939311302	0.666134703366
5	120864	28801.750931624259	5.03983655302
5	120885	28803.031401591088	3.616424187479
5	120892	28804.521836434771	1.865589815076
5	120913	28811.967875978304	0.755327453088
5	120945	28819.609409805483	1.367415442402
5	120987	28827.111827483998	2.338386685732
5	121027	28832.912041535845	8.070022924553
5	121037	28833.638975181291	4.160033443738
5	121045	28836.750615563681	6.843704879922
5	121065	28841.902460106848	5.108320119311
5	121110	28859.263187607837	8.411899432363
5	121114	28859.425306204609	5.317879040789
5	121127	28861.753912684774	1.638034163471
5	121150	28863.972773628027	1.619453394511
5	121176	28877.608108786192	1.786624564994
5	121198	28879.620612074748	2.752275558798
5	121203	28880.303380535308	2.595631242983
5	121209	28881.412484108552	3.350563116001
5	121213	28881.563218805591	2.622026469706
5	121248	28892.486646165709	4.826320753122
5	121275	28897.76637198043	3.790292611112
5	121336	28911.286164824069	15.449217901117
5	121347	28911.895419614021	11.225154543251
5	121358	28915.054332354398	10.122109944577
5	121381	28917.869318950417	4.793690824446
5	121449	28934.688276695109	0.770839619896
5	121464	28939.15979330868	0.774106996125
5	121511	28948.767839823623	4.355429717058
5	121523	28953.123607507336	8.045222562284
5	121543	28955.684423261341	10.388425302186
5	121590	28974.872072531266	4.540293728863
5	121605	28976.342277903306	5.669166206174
5	121623	28981.2827043181	3.244351993587
5	121639	28984.105833317898	4.789647081493
5	121646	28985.590385267705	0.428600407607
5	121669	28990.037607987673	0.212112754963
5	121689	28993.830898846932	1.094245010811
5	121693	28993.930372589899	0.551496646289
5	121711	28999.446306409847	1.301457164106
5	121740	29004.740888134774	0.453054926354
5	121795	29019.924136742384	0.723715517879
5	121827	29027.826590595206	4.770135003978
5	121865	29034.700892246936	2.746018651041
5	121869	29034.874586155497	2.098700773939
5	121887	29037.148161433886	0.460784459492
5	121895	29044.842092421413	0.32911558128
5	121902	29048.23897183389	2.977824734708
5	121917	29050.602320585957	0.774945145802
5	121924	29055.333473896142	3.708235565713
5	121944	29059.462396450593	0.781350260028
5	121956	29064.621625319183	0.014594167292
5	122009	29077.58726032739	2.788912660518
5	122013	29077.743294253731	1.351888678743
5	122026	29080.08390153102	1.92429285078
5	122036	29081.473976378767	2.08105795317
5	122061	29087.954836867868	2.44881167882
5	122077	29092.314487014307	2.204208351543
5	122085	29094.32247698905	0.078283889858
5	122139	29103.012403118762	2.47708266809
5	122158	29106.623203059907	2.149163315474
5	122172	29109.573527719394	3.579438399884
5	122177	29110.1400418005	0.633551310305
5	122197	29118.813184926533	7.956993782285
5	122233	29129.825036740253	17.755723408741
5	122256	29131.780229437038	17.362993560256
5	122263	29133.733289305518	8.970906464883
5	122294	29138.831662916191	8.324334247676
5	122315	29144.087952780711	3.117673894142
5	122328	29145.412217905524	3.24106655382
5	122395	29163.152864273036	9.712716933467
5	122404	29165.555631531957	11.831217196312
5	122420	29170.119022252638	11.402381577706
5	122462	29174.849734036908	9.443711850862
5	122472	29176.117223163024	7.383963678072
5	122487	29178.291453142322	4.382685359253
5	122495	29179.740770039869	0.942503328063
5	122538	29188.397689293723	3.79224614361
5	122575	29193.089524067891	7.840387163006
5	122590	29194.803422224545	1.619362542883
5	122619	29200.495641357229	1.90642584972
5	122624	29200.662114919011	1.869550345322
5	122631	29202.012251461394	0.234583354238
5	122648	29206.401987461591	0.256112304539
5	122656	29212.372934223415	2.748088125186
5	122697	29220.065548739631	3.195690541015
5	122710	29222.502421356662	3.517522352501
5	122773	29231.616682566043	10.194645913888
5	122779	29232.636253044944	7.746164164074
5	122783	29232.929043822972	4.021391072821
5	122817	29238.963585359253	0.106048441038
5	122837	29245.10661019957	4.048791296761
5	122867	29250.721203903075	4.148876326254
5	122874	29251.672658823205	3.432211116313
5	122885	29253.379740669748	3.656371161466
5	122896	29260.016734794462	5.671897314955
5	122900	29260.642765363434	4.418925812966
5	122910	29263.29949525385	1.719807897141
5	122914	29266.312153159891	3.393706062919
5	122937	29268.181692209414	0.038646569711
5	123052	29296.732209769244	20.123468704595
5	123057	29296.778121108135	19.265147605017
5	123062	29296.898628790865	18.936197783692
5	123067	29297.061149053866	17.896757265129
5	123078	29301.120738549671	14.108481064778
5	123096	29302.807680121405	13.269094108061
5	123112	29304.595815532694	9.396114783593
5	123135	29309.403317538513	13.815677726334
5	123158	29313.81242619084	14.201147375483
5	123166	29315.398480481368	15.285787188082
5	123179	29316.480345435889	14.654180738014
5	123185	29317.407030753659	14.601336492045
5	123190	29318.133875823094	11.943046528708
5	123214	29323.654027234367	2.725352309469
5	123260	29327.113072291639	1.310349845933
5	123277	29329.889756142257	1.482672096009
5	123314	29335.605555615955	3.107621432522
5	123323	29339.188893323905	4.713681215879
5	123336	29341.505953779533	6.84429209974
5	123345	29344.51193269174	7.667880638047
5	123367	29347.805692254122	7.018171673723
5	123372	29347.88189119872	1.570420435383
5	123376	29348.111206454225	0.850290322201
5	123392	29351.771450730854	1.535062013242
5	123455	29370.468322769393	7.750105681555
5	123475	29374.518485343869	0.812250213501
5	123483	29376.288028571165	2.131852510343
5	123496	29383.075129811227	7.556694528512
5	123532	29389.022501632747	1.363902094719
5	123536	29390.817794974462	2.368311529782
5	123784	29461.228581392715	65.378650396731
5	123798	29464.850826974513	68.180225471419
5	123810	29466.165027509446	68.138894429159
5	123823	29468.562454412359	65.456178272349
5	123886	29483.91792248539	80.615535157943
5	123891	29483.972052581412	78.751798539681
5	123901	29488.344605422241	82.817977579182
5	123921	29490.174155555903	81.152460765063
5	123927	29490.415257003745	74.024052609989
5	123933	29491.401594723139	63.246450406628
5	123940	29493.148991937097	57.943935873383
5	123945	29493.283596159461	52.507857600201
5	123958	29500.076023944288	53.987706730826
5	123992	29507.41726252324	60.79425208373
5	124003	29509.025924245955	61.321043686703
5	124014	29513.887478746451	59.882399189553
5	124104	29525.898956292571	69.317238587767
5	124110	29526.747822653233	63.895553420647
5	124117	29527.636570954082	63.695506724346
5	124133	29533.427265984986	66.614200340297
5	124138	29533.84959502176	59.824082378986
5	124143	29535.476663191173	58.406640367612
5	124150	29535.910787480571	51.703308589928
5	124162	29539.97395200543	51.212371511592
5	124172	29540.624014614706	47.774419384851
5	124181	29541.768020079684	42.065852483562
5	124192	29544.350985686031	44.2016005155
5	124206	29549.456597502852	48.324920388497
5	124265	29556.370702027756	53.082332824445
5	124270	29557.361637646229	52.098556544651
5	124285	29561.439803110965	42.297779529345
5	124318	29566.491819514466	25.483928486896
5	124327	29570.129323592102	23.414959620961
5	124334	29570.860716657968	23.156286199425
5	124345	29571.271287219872	22.493483266501
5	124352	29574.891430298448	19.68117107859
5	124359	29576.314149476852	20.486113589082
5	124376	29581.33790743502	25.416765676046
5	124389	29584.386300052767	24.987445179028
5	124407	29591.291450351834	23.62658210805
5	124429	29594.494053592028	21.408996807552
5	124447	29599.4596429063	20.448887858649
5	124463	29605.217050562427	25.355286197395
5	124474	29607.69817952451	23.911298956534
5	124479	29609.305010167591	24.516684657034
5	124486	29611.570468658786	24.28859725652
5	124504	29615.709329651079	28.149447326796
5	124519	29616.298574999507	27.264400725437
5	124529	29619.739708387061	16.233887886537
5	124547	29623.604027980908	19.895925223889
5	124552	29624.498187751405	12.676047248362
5	124576	29632.249663333227	7.302528786083
5	124640	29640.00713810754	11.244722494352
5	124647	29640.907757966865	11.711221702307
5	124660	29643.859205819688	14.161961742962
5	124667	29645.553845061461	12.920999636152
5	124672	29646.91529312339	13.675277446187
5	124685	29649.934843724712	16.671930032651
5	124721	29659.98164310939	25.746011584232
5	124739	29663.4447832248	23.569521468358
5	124749	29666.977194884799	22.882162779886
5	124757	29668.390788789176	6.018832605324
5	124767	29673.25475450775	9.290152254651
5	124821	29682.716693080144	18.378894855895
5	124826	29684.286210013987	16.939361516197
5	124830	29684.299780020746	6.474918356007
5	124841	29689.124483665535	2.598236896728
5	124853	29690.273280130472	1.050335727594
5	124893	29708.287463180548	2.201332363649
5	124915	29715.51933731719	6.8878484133
5	125094	29762.416945857333	49.975875872657
5	125099	29763.278068878942	42.377943232499
5	125109	29764.026323729309	35.651382499659
5	125120	29765.599083564747	29.862373433793
5	125125	29765.72086469281	29.429400653075
5	125132	29767.408797253606	20.307928845725
5	125137	29768.835251373587	13.59823628162
5	125142	29769.121240047862	5.115315208325
5	125146	29769.206853388209	2.620754394831
5	125164	29779.137907042985	3.376010578655
5	125185	29785.860835119879	6.035133724649
5	125254	29798.684940531483	13.56602072771
5	125260	29800.899545029598	12.034704028375
5	125269	29802.6377535935	11.763106739016
5	125274	29803.323502404329	10.962190031012
5	125279	29803.395835981	7.269729065418
5	125290	29808.097154408273	11.458635950512
5	125325	29812.843437880674	11.879834766093
5	125330	29813.670355832334	11.161370660598
5	125352	29822.970680660756	18.545630047905
5	125387	29828.017731330185	15.211568689065
5	125392	29830.199736849517	15.997872916729
5	125400	29831.003568531397	15.49998166574
5	125424	29837.32777049547	18.542411374047
5	125470	29846.342845231807	23.079388022149
5	125482	29852.659890366005	19.514086677171
5	125486	29852.949879463039	14.843938572796
5	125493	29854.453056141434	0.015096900225
5	125517	29861.930198142472	1.917803247131
5	125532	29863.075273236156	0.477707380784
5	125556	29867.353562380235	0.818983252707
5	125565	29869.811223889045	2.101849785527
5	125616	29878.606018154761	0.995719764253
5	125643	29888.34514179459	8.07767331693
5	125656	29891.120718963508	2.260561997467
5	125664	29891.540767142171	2.177335834953
5	125676	29894.474282655557	1.467123342486
5	125727	29909.171043834231	0.709899447211
5	125768	29916.903369622942	3.051464448586
5	125821	29937.00469255626	2.561860365679
5	125865	29942.581294875308	7.161938247847
5	125873	29943.587709887888	6.50160568844
5	125878	29943.997874446554	5.688757353516
5	125882	29944.398707943623	4.671840336469
5	125924	29953.641381402947	0.76267729294
5	125973	29966.86786402429	12.006070988951
5	125987	29969.615068212799	14.705713017512
5	126002	29972.189460566554	9.622188181616
5	126007	29972.624352887781	8.084034137634
5	126019	29976.562278530772	6.393345597136
5	126034	29979.384574330141	8.384779423007
5	126052	29982.474845814344	9.001733884523
5	126061	29985.901198874743	10.379425231334
5	126076	29994.192465697899	10.357854342108
5	126092	29997.717740728794	13.752841408508

