version 2
run Second-n2-3-20191016-17:03:21-7648
attr configname Second-n2
attr datetime 20191016-17:03:21
attr experiment Second-n2
attr inifile omnetpp.ini
attr iterationvars ""
attr iterationvarsf ""
attr measurement ""
attr network org.omnetpp.queueing.Pizza
attr processid 7648
attr repetition 3
attr replication ""
attr resultdir results
attr runnumber 3
attr seedset 3
param **.PS.maxInventoriedPS 2
param **.U1.interArrivalTime exponential(3s)
param **.U2.interArrivalTime exponential(5s)
param **.PS.serviceTimeForInventoryU1 exponential(1.0s)
param **.PS.serviceTimeForInventoryU2 exponential(1.2s)
param **.PS.serviceTimeDirectU1 exponential(1.4s)
param **.PS.serviceTimeDirectU2 exponential(1.4s)
param **.PS.probabilityProducing 0.7
param **.CS.serviceTimeU1 exponential(1.1s)
param **.CS.serviceTimeU2 exponential(1.4s)

vector 0 Pizza.EntryQueueU1 queueLength:vector ETV
attr interpolationmode sample-hold
attr title "queue length, vector"
vector 1 Pizza.CS queueLength:vector ETV
attr interpolationmode sample-hold
attr title "queue length, vector"
vector 2 Pizza.EntryQueueU2 queueLength:vector ETV
attr interpolationmode sample-hold
attr title "queue length, vector"
vector 3 Pizza.sink lifeTime:vector ETV
attr interpolationmode none
attr title "lifetime of arrived jobs, vector"
attr unit s
vector 4 Pizza.sink lifeTimeU2:vector ETV
attr interpolationmode none
attr title "lifetime of arrived jobs, vector"
attr unit s
vector 5 Pizza.sink lifeTimeU1:vector ETV
attr interpolationmode none
attr title "lifetime of arrived jobs, vector"
attr unit s
0	0	0	0
0	5	2.400847172678	1
0	9	3.432143397568	2
0	11	4.111238126736	1
0	16	4.156865278345	0
0	53	12.171015222698	1
0	54	12.19423944354	0
0	100	23.6553027744	1
0	102	25.066877907579	0
0	156	34.435234095193	1
0	157	34.810874121389	0
0	163	35.784313799413	1
0	164	36.2392576773	0
0	179	39.904403458899	1
0	180	40.278190327506	0
0	226	49.145415268317	1
0	228	49.294735623396	0
0	235	49.639547466929	1
0	237	50.010177241301	2
0	239	50.634257991603	3
0	240	50.829116085858	2
0	246	50.90403446227	3
0	249	52.088048296453	2
0	255	52.103548482888	3
0	256	52.909508673455	2
0	260	53.022662057698	3
0	263	54.615249203559	2
0	271	58.459755572197	1
0	278	60.863297466311	2
0	279	60.954722086628	1
0	286	64.710538742791	0
0	302	65.484857276809	1
0	307	69.844118818162	2
0	309	70.27329342226	1
0	314	70.481391977738	0
0	322	71.745253672458	1
0	323	72.185698627999	0
0	336	73.567700268641	1
0	338	73.95330578392	2
0	343	76.240784704902	1
0	348	76.583878438714	0
0	361	77.019731747099	1
0	363	78.316550054932	0
0	385	83.860354663258	1
0	396	93.49510141521	2
0	398	94.399815968011	3
0	399	94.828477924589	2
0	405	94.914565349441	3
0	407	97.313643511526	2
0	414	98.601734772182	3
0	415	98.62616097147	2
0	421	99.632894355493	3
0	423	100.148940083865	4
0	426	100.404212254593	5
0	428	100.696412869352	4
0	433	103.472796765397	3
0	440	104.899659233983	2
0	445	105.498068096794	1
0	451	105.928693269076	2
0	453	106.429479915082	3
0	454	107.523254485535	2
0	458	108.488977624146	3
0	461	111.742624916204	2
0	465	112.138528083182	3
0	469	115.068271858282	4
0	479	118.665145485868	3
0	484	119.036173679078	2
0	492	121.931687667672	1
0	499	124.833533533545	0
0	528	133.443122364293	1
0	532	135.73856596079	2
0	533	136.391598909885	1
0	540	137.310891305632	2
0	543	140.088505338626	1
0	549	141.482127476927	2
0	550	143.351886857878	1
0	559	145.302645303401	2
0	560	145.371590752861	1
0	566	147.051006048726	0
0	583	149.375617597186	1
0	585	149.606383179306	2
0	591	151.507042201401	1
0	596	151.585156153771	0
0	619	154.477419228924	1
0	621	157.384221530107	2
0	623	158.425900048577	3
0	629	159.825424500807	4
0	631	160.338660242098	5
0	632	160.395481889036	4
0	640	162.158836580314	3
0	645	162.193395941439	2
0	657	162.91167332281	1
0	662	163.106767916878	0
0	677	165.000515693483	1
0	678	165.027788695549	0
0	687	165.598578253698	1
0	697	168.32505853197	2
0	698	168.383570727175	1
0	704	169.217525258731	0
0	744	176.570371306239	1
0	745	177.11583053753	0
0	762	187.214828156292	1
0	766	188.435049291354	2
0	767	190.127190302934	1
0	776	192.263658688944	0
0	787	193.723374749096	1
0	790	194.898565751485	0
0	807	198.265801889181	1
0	809	199.136579264095	2
0	813	200.469406697459	1
0	819	201.849762069076	0
0	837	204.335357121313	1
0	839	206.340633167993	0
0	866	211.264514754722	1
0	867	213.757332698639	0
0	876	215.572429130702	1
0	878	215.977955244875	2
0	879	216.258341135076	1
0	885	217.291370830744	0
0	901	221.518019749752	1
0	905	224.510620634656	2
0	910	227.091591890699	3
0	911	227.376135362086	2
0	920	228.255048226318	3
0	922	228.846746376079	4
0	923	229.608215724415	3
0	928	230.265514322716	2
0	934	230.887566946468	1
0	941	231.14374244862	2
0	943	231.849794870067	3
0	947	232.297465643503	2
0	955	233.226365566542	1
0	961	233.42553136741	2
0	964	236.662866832929	1
0	969	237.547985990617	0
0	981	240.087291488401	1
0	985	240.862899920723	0
0	991	240.909906418267	1
0	993	241.609746095005	0
0	1001	241.992040661116	1
0	1005	242.225033228608	2
0	1006	242.55074086324	1
0	1013	243.738878951321	2
0	1015	243.997978610336	1
0	1021	244.848830232408	0
0	1033	245.984249128682	1
0	1035	246.093177429739	2
0	1036	246.191761218992	1
0	1043	248.896663351842	0
0	1076	258.345490778792	1
0	1077	264.39802842392	0
0	1120	276.619383247324	1
0	1122	279.648364812076	2
0	1127	281.786930440017	1
0	1132	282.166822437371	0
0	1138	282.547805651255	1
0	1143	284.021973850764	2
0	1144	284.096269402761	1
0	1153	286.965164507097	0
0	1174	291.091985992312	1
0	1176	291.480936414158	2
0	1180	293.205255701216	1
0	1186	293.446709538081	2
0	1187	293.572529682715	1
0	1192	294.693082462428	0
0	1209	297.771115275988	1
0	1215	300.136150906797	2
0	1216	300.78034816995	1
0	1222	301.488109145358	2
0	1223	302.352662663025	1
0	1231	303.713814808081	0
0	1271	316.869903926239	1
0	1272	318.787096579007	0
0	1299	323.457029855888	1
0	1301	324.793124018264	2
0	1304	326.557265711205	1
0	1310	326.573993029398	2
0	1311	327.103703093267	1
0	1318	327.869163000899	0
0	1322	328.942408628211	1
0	1324	329.401461587938	2
0	1330	333.160674621127	3
0	1331	333.375120278318	2
0	1336	334.601809613089	1
0	1341	337.846613463082	0
0	1347	339.917759242378	1
0	1350	341.803805510587	0
0	1362	343.889735327895	1
0	1364	344.292069386826	2
0	1366	344.510165401552	3
0	1368	345.735870177675	2
0	1375	346.879770029754	1
0	1380	346.948255333904	0
0	1386	347.505027343402	1
0	1389	348.635256153318	0
0	1400	350.783460654879	1
0	1403	352.803852458284	2
0	1405	355.277006055912	1
0	1411	355.566863563364	2
0	1414	356.287428519349	3
0	1417	356.864423242834	2
0	1423	357.228517572589	3
0	1427	358.399161564671	4
0	1428	358.68379613453	3
0	1434	359.492484271366	2
0	1439	359.877662790791	1
0	1444	360.337363524121	0
0	1448	361.108417079313	1
0	1452	362.273528987018	2
0	1454	362.852465639199	3
0	1455	363.172283869365	2
0	1461	363.980415235036	1
0	1467	364.678499524167	2
0	1471	366.023734239838	1
0	1476	366.625547568224	0
0	1506	373.212476061153	1
0	1508	374.469074890575	2
0	1509	374.727804549545	1
0	1516	375.439949143678	2
0	1521	377.271865190847	1
0	1527	378.51920687161	0
0	1538	379.473793626933	1
0	1541	379.988040710162	0
0	1561	383.40836261361	1
0	1567	387.174482609835	0
0	1573	387.574134572889	1
0	1574	387.914002114985	0
0	1578	388.058010013385	1
0	1583	390.228228212662	0
0	1589	390.482429134886	1
0	1590	390.613656106119	0
0	1602	391.233494068633	1
0	1603	391.329709152953	0
0	1637	402.532828694912	1
0	1638	402.610708165155	0
0	1645	405.3129845476	1
0	1647	406.728357645517	2
0	1648	406.932549871201	1
0	1653	406.940600600954	0
0	1777	442.004218611684	1
0	1778	443.005894175205	0
0	1801	451.226127689094	1
0	1802	453.846906436571	0
0	1808	454.043687768866	1
0	1809	455.22359789734	0
0	1837	461.590953507485	1
0	1840	461.931005279017	0
0	1868	466.651921362627	1
0	1873	467.628264747325	0
0	1905	473.360695031004	1
0	1907	474.726656571945	2
0	1913	477.978212892955	1
0	1921	478.076584053704	2
0	1923	478.417310221034	1
0	1929	478.479036352387	2
0	1931	478.678436277466	3
0	1934	479.668523109225	4
0	1935	479.992303621454	3
0	1940	480.232392982671	2
0	1946	481.363198214361	1
0	1952	482.897914326302	0
0	1956	485.479110742184	1
0	1958	485.771862718281	2
0	1963	489.953428410567	3
0	1964	490.015904051094	2
0	1969	490.592841571502	1
0	1975	491.518695864616	2
0	1978	495.436339583189	1
0	1983	496.218023253171	0
0	1998	497.469313737229	1
0	2001	498.678254866188	0
0	2022	502.664794654225	1
0	2026	504.98057854054	2
0	2029	507.777584226651	1
0	2034	507.818970961309	0
0	2040	508.032713295771	1
0	2042	509.050925423882	2
0	2047	511.492595678737	1
0	2053	511.595880591894	2
0	2058	513.386866116648	3
0	2060	514.134684276214	2
0	2068	516.018966171019	1
0	2074	516.925272369944	0
0	2095	521.054521888418	1
0	2097	521.206396349809	2
0	2099	522.558307258372	3
0	2102	523.425192731423	2
0	2107	524.387793997436	1
0	2117	525.744711763089	2
0	2118	526.304406283452	1
0	2126	527.087709322281	0
0	2134	527.760252081999	1
0	2135	528.399998524782	0
0	2143	528.873536014119	1
0	2146	530.118115344897	2
0	2147	530.817645692463	1
0	2154	531.508087031662	0
0	2173	533.298128856627	1
0	2177	534.250486571741	2
0	2180	537.117675957322	1
0	2185	537.220136711669	0
0	2194	538.870912053283	1
0	2197	539.935565703761	0
0	2240	549.580600201193	1
0	2243	551.403542616929	0
0	2254	552.765852239851	1
0	2258	554.297387244503	0
0	2267	555.080628592154	1
0	2268	555.750000949416	0
0	2283	557.723768324721	1
0	2286	558.371375182342	0
0	2318	566.904856222501	1
0	2319	566.926264055515	0
0	2330	578.064441635266	1
0	2332	578.129188624057	2
0	2335	578.563045544366	1
0	2345	581.682950031797	0
0	2357	582.532355208205	1
0	2360	583.023464485341	0
0	2372	583.75821717905	1
0	2376	585.391257506774	2
0	2377	585.780114708411	1
0	2383	586.452480095939	2
0	2384	586.753111460932	1
0	2389	586.978644989691	0
0	2403	590.34404141223	1
0	2404	590.573926500914	0
0	2426	596.534622296536	1
0	2427	597.12572873953	0
0	2435	598.631655883241	1
0	2436	599.624590553324	0
0	2442	599.656935051783	1
0	2443	599.881404176606	0
0	2462	606.088197784774	1
0	2466	606.808058155599	0
0	2486	610.331549131474	1
0	2488	611.037648858985	2
0	2490	611.60888340026	3
0	2495	616.070643426562	4
0	2496	616.320465273219	3
0	2508	622.220458464904	4
0	2509	622.565343865199	3
0	2514	623.602987900086	2
0	2520	624.372030634811	1
0	2525	624.915717938804	0
0	2529	625.310782676316	1
0	2531	625.466989846093	2
0	2533	625.762630789092	3
0	2538	626.56414340129	4
0	2539	627.668503497262	3
0	2544	628.24754154849	2
0	2548	628.802719344281	3
0	2553	629.900280418923	4
0	2556	629.980641404956	5
0	2559	630.830034378003	4
0	2564	630.987915975989	3
0	2569	631.000088212296	2
0	2575	634.321196871104	3
0	2577	634.350665705323	4
0	2580	636.022994124574	3
0	2585	636.632129227663	2
0	2590	638.802110909804	1
0	2598	641.328908172659	0
0	2609	642.134903646099	1
0	2614	643.438395838886	0
0	2635	645.070290609149	1
0	2637	646.203551023545	2
0	2644	651.307837752307	1
0	2650	652.327840994915	0
0	2673	660.484780030661	1
0	2677	661.619509039957	2
0	2679	662.513343179585	3
0	2684	665.770063058813	4
0	2688	667.351249080591	5
0	2689	667.430222786883	4
0	2697	669.983436194125	5
0	2698	670.266229406355	4
0	2703	670.557692146417	3
0	2708	670.617609949311	2
0	2714	678.340573691086	3
0	2718	678.979913489874	4
0	2719	683.447990405813	3
0	2724	684.772254904347	2
0	2728	685.081656280934	3
0	2730	685.149434691108	4
0	2734	685.905287246103	5
0	2737	687.964658211688	4
0	2741	689.922813675568	5
0	2745	691.256235621985	6
0	2748	691.544106331147	5
0	2752	691.824106740504	6
0	2758	692.201673232664	5
0	2763	692.58501269391	4
0	2768	695.999025048074	3
0	2772	696.453088271084	4
0	2774	698.061603270316	5
0	2777	698.245811267125	4
0	2782	701.271208344057	3
0	2787	702.516835670598	2
0	2794	703.782177352471	1
0	2798	704.502720413184	2
0	2804	706.697643021082	3
0	2806	707.216173479152	4
0	2809	707.750440310004	3
0	2816	708.699575770795	4
0	2817	708.723864642606	3
0	2826	713.074730985769	2
0	2833	713.293591170594	1
0	2838	713.294026267302	0
0	2867	719.733356767592	1
0	2872	721.574416169182	0
0	2879	722.536495345845	1
0	2881	723.69387864698	2
0	2884	724.476038178663	1
0	2892	725.625232391932	0
0	2901	727.679614386939	1
0	2902	728.037516870616	0
0	2910	728.6422243822	1
0	2912	728.98479815362	2
0	2913	728.997848229861	1
0	2918	729.714070116761	0
0	2926	730.980981346127	1
0	2928	731.754110475886	2
0	2931	733.574762428163	1
0	2935	733.714817376867	2
0	2937	735.049775846408	3
0	2939	736.040722512316	4
0	2941	736.620319749305	5
0	2943	736.804767943814	6
0	2947	737.998257966435	7
0	2949	738.489999753839	8
0	2951	739.543965036624	9
0	2955	740.268040064224	10
0	2956	741.046589285469	9
0	2961	741.439521098645	8
0	2965	742.256560709492	9
0	2967	743.17860780526	10
0	2971	744.543371890247	11
0	2974	745.644523936798	12
0	2975	747.78841572856	11
0	2980	748.080360949448	10
0	2986	749.743980474842	11
0	2991	751.924630092195	10
0	2996	752.245004281289	9
0	3001	752.28438271421	8
0	3007	755.291129105621	7
0	3015	755.711408687151	6
0	3022	757.760857099247	5
0	3027	758.605791869929	4
0	3032	759.211354577694	3
0	3039	760.473024979196	4
0	3041	760.900115881788	5
0	3042	761.435751413815	4
0	3048	762.243830510996	3
0	3053	762.3302136066	2
0	3057	762.546453837262	3
0	3062	763.759530920997	4
0	3064	764.623493247061	3
0	3069	765.34819463131	2
0	3074	765.812886916712	1
0	3079	766.54700994689	0
0	3083	767.87395774754	1
0	3087	769.833093810652	2
0	3089	772.022371304767	3
0	3094	774.54390049704	2
0	3104	777.638869494765	3
0	3105	780.109380372477	2
0	3109	780.446412367155	3
0	3112	781.459382698326	2
0	3117	781.609927953435	1
0	3126	785.780070144462	0
0	3145	787.182532884089	1
0	3151	790.948835785277	0
0	3190	800.233689227628	1
0	3191	800.323954957554	0
0	3207	803.283114913374	1
0	3210	805.02154917979	0
0	3224	806.76645090365	1
0	3226	806.948938592429	2
0	3227	807.607429103295	1
0	3232	808.930314030517	0
0	3241	810.935653620833	1
0	3244	811.537041654413	0
0	3257	815.677019345234	1
0	3260	816.949496093279	0
0	3274	819.489146380083	1
0	3276	819.805525927362	2
0	3278	820.108529056143	3
0	3281	822.04866198344	2
0	3286	822.204897717419	1
0	3292	822.99359803697	2
0	3294	824.180598577809	1
0	3304	826.294238379526	0
0	3315	827.598182098219	1
0	3317	828.161498746618	0
0	3326	830.19958177073	1
0	3328	830.521446872034	2
0	3329	831.081591441548	1
0	3335	832.14092129287	0
0	3343	833.707561240932	1
0	3344	834.328330077217	0
0	3364	836.792302806498	1
0	3366	840.99095596144	2
0	3373	846.114249215226	1
0	3378	847.87845518692	0
0	3394	850.778126576611	1
0	3395	851.316602970128	0
0	3401	852.72424081181	1
0	3405	853.10277001711	2
0	3406	853.417566568018	1
0	3413	854.942974084959	0
0	3419	855.248963227899	1
0	3421	855.837465908927	2
0	3422	855.974492526715	1
0	3429	858.314374936949	0
0	3441	860.779731388101	1
0	3443	861.125998838222	2
0	3444	862.752403615595	1
0	3449	863.131648824897	0
0	3462	863.962432132272	1
0	3465	865.202250466124	0
0	3480	870.618464661412	1
0	3483	870.852608787443	0
0	3514	879.294124013804	1
0	3516	880.455694034677	2
0	3517	880.816619483045	1
0	3523	881.059364780256	2
0	3524	881.719336771621	1
0	3530	883.61497180078	2
0	3532	884.460449589771	1
0	3539	885.58915012482	0
0	3555	888.220702890612	1
0	3557	889.740198977319	2
0	3561	890.689227403445	3
0	3569	893.56507655086	2
0	3575	894.262985751547	1
0	3582	895.441701789768	2
0	3583	895.785035631141	1
0	3588	900.4579900075	0
0	3628	910.442038825233	1
0	3631	913.360544675501	0
0	3637	913.82664631686	1
0	3638	913.913040288831	0
0	3650	914.970889669912	1
0	3654	920.887043995999	2
0	3656	922.543044428516	3
0	3660	925.28779513882	2
0	3667	925.425394690624	1
0	3672	925.582068314708	0
0	3678	926.454366301069	1
0	3681	927.153448133077	2
0	3682	927.58484717475	1
0	3687	928.101129855342	0
0	3691	929.42704219443	1
0	3695	930.146989779128	2
0	3696	930.791040056612	1
0	3701	932.032480627346	0
0	3709	933.350168477768	1
0	3713	933.754735194326	0
0	3722	933.944020521401	1
0	3725	935.076634078175	0
0	3731	938.734921779585	1
0	3733	942.332033602776	2
0	3738	942.663586047037	1
0	3743	943.649573824722	0
0	3772	951.886758654491	1
0	3773	952.400688150069	0
0	3784	952.976223550596	1
0	3788	954.59782112908	2
0	3789	954.645118507407	1
0	3796	955.3446505508	0
0	3803	956.747869636589	1
0	3805	956.759264241023	2
0	3806	956.915552198026	1
0	3812	959.779618063852	2
0	3813	960.242762830094	1
0	3818	961.552180036684	0
0	3849	966.375827633168	1
0	3852	967.228119161113	0
0	3858	967.599296052279	1
0	3862	968.945776188324	0
0	3874	970.628108398724	1
0	3878	971.15048331443	2
0	3880	972.666083805156	3
0	3881	973.056617088919	2
0	3888	973.377526427968	1
0	3893	973.455690242042	0
0	3897	974.511302989751	1
0	3899	974.725877586289	2
0	3904	975.372576502272	3
0	3905	975.907368662834	2
0	3914	978.509029329703	1
0	3920	979.609065468658	2
0	3921	980.098828197741	1
0	3927	980.576537123006	2
0	3928	980.998947910674	1
0	3936	981.599698435431	2
0	3937	981.800547874783	1
0	3942	984.196235459421	0
0	3946	984.428580509278	1
0	3949	986.355405713092	0
0	3953	986.919038242087	1
0	3956	987.757999924416	0
0	3979	991.558103227159	1
0	3982	994.870089964544	0
0	4010	1003.656222630602	1
0	4013	1005.96003022456	0
0	4024	1006.840341033628	1
0	4025	1006.982726891573	0
0	4040	1009.148163290938	1
0	4044	1011.151610308226	0
0	4055	1012.180070448267	1
0	4058	1013.49757123072	0
0	4065	1014.587980440003	1
0	4067	1016.225860029779	0
0	4083	1018.409619257743	1
0	4086	1019.096571317443	2
0	4087	1020.51605021119	1
0	4093	1021.635952694698	0
0	4107	1024.869701043502	1
0	4108	1026.31295212151	0
0	4123	1031.176381844877	1
0	4124	1032.453010189416	0
0	4132	1033.911162203823	1
0	4133	1035.018136710923	0
0	4139	1035.122515656899	1
0	4141	1036.084893237943	2
0	4142	1036.522794661531	1
0	4148	1037.678546413205	2
0	4152	1039.628188394119	3
0	4153	1041.006734692613	2
0	4159	1041.008775862776	3
0	4160	1041.181917662414	2
0	4165	1042.428313075062	1
0	4171	1044.828827110085	0
0	4205	1052.364421399246	1
0	4207	1053.117230532536	2
0	4210	1053.498137383026	1
0	4216	1053.702992881669	2
0	4220	1054.261133177253	1
0	4225	1054.365239997196	0
0	4242	1058.43310972299	1
0	4245	1058.688525777166	0
0	4256	1058.992099515974	1
0	4257	1059.502216052973	0
0	4267	1060.787496426718	1
0	4269	1061.02839381935	2
0	4271	1061.172783700324	3
0	4274	1062.638539093494	2
0	4279	1063.014220389095	1
0	4286	1063.955508913647	2
0	4291	1065.892329453928	3
0	4292	1066.169042035231	2
0	4298	1067.021315188066	1
0	4304	1067.295854820315	0
0	4315	1067.912493264709	1
0	4318	1069.7838999399	0
0	4324	1070.101972764204	1
0	4327	1072.124106299566	0
0	4333	1072.618872936179	1
0	4334	1072.768293353573	0
0	4345	1072.921970138112	1
0	4346	1073.210105089993	0
0	4350	1073.563776493089	1
0	4353	1074.36518728792	0
0	4371	1079.123390842544	1
0	4372	1079.743766580898	0
0	4384	1082.096865168197	1
0	4386	1083.389691845957	2
0	4388	1083.590667114984	3
0	4389	1083.651505731386	2
0	4394	1083.676998382723	1
0	4400	1083.817560739321	2
0	4402	1084.226011670969	1
0	4408	1084.498046975608	0
0	4422	1085.362780882874	1
0	4426	1086.044552880915	0
0	4453	1094.554899728615	1
0	4454	1094.603204073251	0
0	4460	1095.891850308641	1
0	4464	1096.110059162148	2
0	4466	1096.811326557508	3
0	4468	1097.682194890826	4
0	4472	1098.13353344449	5
0	4473	1100.250533582695	4
0	4479	1100.389137143568	5
0	4480	1100.740841580991	4
0	4487	1102.38848844824	3
0	4494	1108.81673652124	2
0	4503	1110.845314866133	3
0	4505	1113.203277956535	2
0	4512	1113.42843834846	1
0	4517	1113.445759886648	0
0	4538	1116.80170225376	1
0	4545	1117.920350665732	2
0	4547	1118.412352986284	3
0	4548	1118.587198868728	2
0	4554	1119.854578717371	3
0	4556	1120.493430657786	2
0	4562	1120.555124955874	3
0	4564	1121.177067613735	4
0	4565	1121.340241592788	3
0	4570	1121.544970093132	2
0	4574	1121.744386258306	3
0	4582	1124.924083010231	2
0	4588	1125.343320180966	3
0	4589	1125.552448571605	2
0	4594	1126.363482108693	1
0	4599	1127.744477208352	0
0	4628	1132.327757527118	1
0	4629	1132.392639984811	0
0	4652	1135.95155712552	1
0	4653	1138.23816141101	0
0	4666	1140.296715816023	1
0	4671	1145.72512510026	0
0	4697	1155.043576040924	1
0	4698	1155.476914471291	0
0	4779	1177.550201895104	1
0	4780	1177.982674817044	0
0	4786	1178.457671480589	1
0	4788	1179.437164222443	0
0	4875	1210.223267836469	1
0	4877	1210.629682529775	2
0	4878	1211.825906373615	1
0	4884	1214.279492429207	0
0	4890	1214.534573791923	1
0	4891	1215.16646512404	0
0	4906	1223.799420149965	1
0	4911	1225.505576264052	0
0	4935	1230.174255280867	1
0	4939	1230.802165933024	2
0	4942	1231.602729776433	1
0	4947	1232.045773958898	0
0	4967	1236.594120015659	1
0	4969	1236.742632651613	2
0	4973	1237.922826839879	1
0	4978	1237.972635555285	0
0	5003	1243.987617207303	1
0	5005	1244.103478571697	2
0	5007	1244.782301784959	3
0	5010	1245.170640565889	2
0	5015	1245.372078627224	1
0	5024	1247.455180975491	2
0	5025	1249.295028709127	1
0	5030	1249.917394865059	0
0	5036	1250.706185922673	1
0	5037	1250.706593504331	0
0	5050	1255.683397197503	1
0	5052	1255.931244350702	2
0	5053	1256.133171845162	1
0	5063	1258.245671029022	2
0	5064	1258.346529126119	1
0	5069	1258.763274234668	0
0	5082	1261.168107649474	1
0	5084	1261.408466855738	2
0	5085	1261.631211336922	1
0	5090	1261.944746085321	0
0	5110	1264.595028350847	1
0	5111	1265.066475585995	0
0	5125	1269.228312669842	1
0	5127	1271.237884455282	2
0	5129	1271.639323647992	3
0	5132	1273.886487081761	2
0	5138	1274.861953188432	1
0	5143	1276.090710193919	0
0	5155	1278.874056562804	1
0	5160	1279.928816496323	0
0	5164	1280.228075429109	1
0	5166	1280.500166480745	2
0	5171	1283.05497061242	1
0	5176	1283.771123362027	0
0	5187	1285.37444269878	1
0	5190	1286.260047161541	0
0	5212	1293.448025419332	1
0	5215	1294.712987404354	2
0	5216	1294.917262573996	1
0	5222	1295.484475508593	0
0	5228	1295.610452332703	1
0	5231	1297.034671252731	0
0	5277	1309.11577577151	1
0	5278	1309.898462651189	0
0	5306	1317.10821401196	1
0	5308	1318.110276924694	2
0	5309	1318.28824432206	1
0	5315	1318.500354570446	2
0	5316	1318.526013375971	1
0	5322	1318.574393655367	2
0	5323	1318.584673549301	1
0	5327	1319.04197188993	2
0	5331	1320.040936131527	3
0	5333	1320.118632272084	4
0	5337	1322.588814170078	3
0	5342	1322.722662620198	2
0	5346	1322.821172374612	3
0	5348	1322.959624605607	4
0	5350	1323.161812011906	5
0	5359	1326.753756468092	6
0	5361	1326.756259970093	7
0	5362	1326.904414784108	6
0	5368	1327.317085980868	7
0	5370	1327.979559049386	6
0	5378	1328.191598498905	7
0	5379	1328.549144779685	6
0	5383	1329.136192634887	7
0	5385	1330.771412092226	8
0	5388	1330.943544779313	7
0	5396	1332.828245143682	8
0	5400	1333.844313388449	7
0	5405	1335.453238658637	6
0	5412	1336.26072930745	7
0	5413	1336.429886956301	6
0	5420	1338.278705304944	7
0	5422	1339.622032643534	6
0	5428	1340.548374295588	5
0	5433	1342.890462043669	4
0	5439	1343.172483587663	5
0	5440	1344.118862925241	4
0	5449	1345.777702024072	3
0	5454	1346.307032226756	2
0	5460	1347.323325789258	3
0	5462	1347.528122477897	4
0	5465	1348.542548739716	3
0	5469	1348.701765443472	4
0	5473	1350.4149100537	5
0	5475	1354.44354933185	6
0	5478	1355.480471332784	5
0	5482	1357.814143365588	6
0	5484	1358.627024854428	7
0	5487	1362.678598129812	6
0	5493	1363.436788339042	7
0	5496	1365.723241950277	6
0	5501	1366.631083392642	5
0	5505	1366.837255052143	6
0	5511	1368.594974876557	7
0	5512	1369.636884530223	6
0	5517	1369.664148766689	5
0	5523	1371.657847362077	4
0	5529	1372.439050132783	3
0	5536	1372.663537554945	4
0	5540	1373.541390575895	3
0	5546	1374.000951712299	4
0	5547	1374.023211843697	3
0	5553	1374.235602033524	4
0	5556	1375.171746174046	3
0	5561	1375.702949042209	2
0	5566	1376.469304136719	1
0	5570	1377.29560548564	2
0	5576	1382.547457020575	3
0	5578	1383.777321530373	4
0	5579	1383.805183793901	3
0	5585	1385.051864445222	2
0	5590	1385.209214460494	1
0	5596	1386.073505287778	2
0	5600	1387.43419237249	1
0	5605	1387.49371051224	0
0	5628	1392.61878627616	1
0	5629	1392.811073776809	0
0	5635	1395.469288181585	1
0	5637	1397.566701778972	0
0	5644	1398.118923617004	1
0	5648	1399.802255250866	0
0	5656	1401.565917571993	1
0	5659	1402.771680504671	0
0	5693	1409.722860523472	1
0	5694	1410.347223982583	0
0	5700	1410.798746125273	1
0	5701	1411.101887804229	0
0	5720	1415.507340750382	1
0	5725	1420.066699357961	0
0	5734	1421.211131535216	1
0	5739	1422.827280887843	0
0	5746	1422.978348200405	1
0	5753	1423.637620406365	2
0	5754	1423.757846689565	1
0	5760	1424.42975412572	0
0	5774	1427.587852834971	1
0	5775	1428.42998969457	0
0	5790	1430.308832770801	1
0	5792	1430.322883853018	2
0	5793	1433.004938436452	1
0	5798	1433.09388690728	0
0	5820	1436.327493111819	1
0	5830	1440.416586628073	0
0	5837	1440.904375413886	1
0	5840	1442.632126474563	0
0	5855	1444.419536502492	1
0	5856	1444.465930370865	0
0	5891	1453.479472107124	1
0	5895	1454.399890468926	2
0	5897	1455.323324978127	3
0	5898	1455.384859948019	2
0	5905	1456.756537390595	1
0	5914	1457.803975346606	0
0	5953	1468.310977149899	1
0	5959	1470.643437869372	0
0	5993	1474.217416111994	1
0	5994	1474.798979187191	0
0	6009	1477.265532630861	1
0	6012	1479.327786258199	0
0	6018	1479.38237363282	1
0	6024	1481.631177282663	0
0	6034	1482.85104406239	1
0	6038	1483.684419364935	2
0	6040	1484.64254072637	3
0	6046	1486.775868108547	4
0	6047	1487.141296727109	3
0	6056	1488.583663525822	2
0	6061	1488.682436835764	1
0	6067	1489.964082109585	0
0	6084	1490.901389490661	1
0	6090	1493.020814184519	2
0	6091	1493.636428540048	1
0	6097	1494.02637107722	0
0	6113	1501.365062447464	1
0	6119	1504.093794868346	2
0	6124	1508.660124968459	1
0	6130	1509.821421011372	0
0	6138	1510.304766009046	1
0	6139	1511.290351379742	0
0	6158	1515.093208222796	1
0	6160	1516.302489014696	2
0	6162	1517.975285136834	1
0	6167	1518.001173252935	0
0	6176	1518.819930879502	1
0	6185	1520.028105153087	2
0	6186	1520.094813249754	1
0	6193	1521.201743339846	0
0	6231	1531.227888637837	1
0	6235	1531.405650181731	2
0	6236	1532.060653228582	1
0	6243	1532.790083449893	2
0	6244	1533.049464169527	1
0	6251	1536.006458224316	0
0	6286	1545.560715320244	1
0	6287	1546.831505134874	0
0	6320	1551.266940625282	1
0	6323	1553.162770970328	0
0	6334	1554.6994196988	1
0	6337	1555.114831822154	2
0	6341	1555.88209002152	1
0	6349	1558.169734031199	0
0	6355	1559.48015995671	1
0	6356	1560.066965127567	0
0	6376	1562.182946336739	1
0	6378	1562.718887839005	2
0	6379	1562.79802398046	1
0	6384	1562.919903657709	0
0	6388	1563.006210323524	1
0	6393	1565.89218772549	2
0	6394	1565.981107225875	1
0	6400	1566.704924227797	2
0	6408	1567.689804458184	3
0	6411	1568.959177832204	2
0	6416	1569.2552486582	1
0	6421	1569.826117766029	0
0	6427	1573.321607022198	1
0	6429	1573.619095365794	0
0	6435	1574.048437844606	1
0	6437	1575.146227278	0
0	6455	1576.788394089582	1
0	6457	1578.162916455701	2
0	6458	1578.301447514699	1
0	6464	1578.409843680062	2
0	6466	1579.16890361695	1
0	6470	1580.1195089753	2
0	6474	1581.146183299974	1
0	6480	1581.956694345595	0
0	6487	1582.168111717229	1
0	6491	1582.615348195803	0
0	6498	1586.265591756591	1
0	6499	1586.711079440197	0
0	6505	1586.81533720083	1
0	6507	1587.780847305337	2
0	6509	1588.566601836342	1
0	6516	1589.316186525774	2
0	6521	1590.120330648044	3
0	6522	1590.504787606788	2
0	6530	1591.27926752421	1
0	6535	1591.29983918775	0
0	6548	1592.04202037352	1
0	6550	1592.301235079707	0
0	6556	1592.316807543045	1
0	6559	1592.88029108288	0
0	6571	1595.4838766399	1
0	6572	1595.998701800699	0
0	6585	1598.761870708187	1
0	6587	1599.602498216973	2
0	6589	1599.711188691968	3
0	6590	1599.809332508292	2
0	6596	1600.403053559186	1
0	6602	1601.804353867296	0
0	6615	1602.132407438964	1
0	6616	1602.843813994328	0
0	6622	1603.818302148067	1
0	6625	1605.591008096077	0
0	6640	1606.546272835628	1
0	6642	1606.977068439796	0
0	6661	1608.940495837879	1
0	6662	1608.968381024943	0
0	6668	1609.163862718302	1
0	6669	1609.241342484171	0
0	6681	1610.59363871333	1
0	6686	1612.310187688868	0
0	6698	1615.967188443716	1
0	6699	1616.279762000419	0
0	6738	1631.189404422134	1
0	6741	1631.730180568076	2
0	6742	1632.868064554159	1
0	6747	1632.953159393792	0
0	6753	1633.319424055745	1
0	6758	1636.25937359128	2
0	6759	1636.372725035483	1
0	6766	1637.571044634577	0
0	6772	1638.86409901956	1
0	6777	1639.417494775811	2
0	6780	1640.104697408289	3
0	6781	1640.477925773303	2
0	6788	1640.717325127569	3
0	6789	1642.038757229874	2
0	6794	1643.473595888195	1
0	6799	1643.841609877136	0
0	6803	1644.170114137647	1
0	6806	1644.514323808985	0
0	6821	1649.262565901758	1
0	6822	1649.60663392792	0
0	6848	1656.348527880972	1
0	6849	1656.37157926443	0
0	6875	1664.852938430271	1
0	6877	1665.240012532372	2
0	6882	1666.373528574974	1
0	6888	1666.609958329275	0
0	6899	1667.164661302496	1
0	6905	1668.633162235602	2
0	6906	1671.063247849267	1
0	6911	1671.142420190645	0
0	6928	1673.506505028776	1
0	6933	1674.789036631918	0
0	6952	1678.776835172879	1
0	6953	1679.608433365916	0
0	6967	1680.344710683524	1
0	6969	1682.186301246948	2
0	6975	1683.616846632048	1
0	6982	1683.819215104483	2
0	6984	1685.171115806027	1
0	6991	1687.706350474481	0
0	6995	1687.994512114209	1
0	7000	1690.167692128575	0
0	7004	1690.667442526444	1
0	7007	1692.026269841704	0
0	7026	1695.145093572063	1
0	7030	1696.590647437863	0
0	7036	1697.013356749955	1
0	7039	1697.700728508755	2
0	7040	1698.002974964765	1
0	7045	1698.442150633855	0
0	7049	1698.83561283177	1
0	7053	1700.754805701905	2
0	7056	1701.112979607054	1
0	7060	1701.44439094706	2
0	7063	1701.587342305603	1
0	7075	1708.313710403856	0
0	7086	1709.29898447683	1
0	7094	1712.022133585251	0
0	7100	1712.7780913956	1
0	7101	1715.491518325432	0
0	7128	1718.882423343544	1
0	7137	1721.239810988616	2
0	7139	1721.650683673457	3
0	7140	1722.465869520226	2
0	7146	1722.653846522348	3
0	7147	1722.752354212717	2
0	7152	1722.938909465262	1
0	7158	1724.163443453974	2
0	7164	1732.172079896365	3
0	7165	1732.332601002259	2
0	7170	1733.047279589553	1
0	7177	1734.365911669119	0
0	7194	1737.255988016801	1
0	7195	1737.324454455503	0
0	7201	1737.439480678757	1
0	7203	1737.441017153694	2
0	7204	1738.016486288328	1
0	7208	1740.257973545358	2
0	7214	1741.380402580508	1
0	7220	1741.797817044857	2
0	7223	1742.566677839614	1
0	7229	1743.253076918249	0
0	7239	1746.010161331768	1
0	7240	1746.774122800357	0
0	7246	1747.021358726279	1
0	7248	1748.508381981432	0
0	7267	1751.286678422913	1
0	7269	1752.016729967753	2
0	7271	1753.040407254391	3
0	7274	1753.723017687377	2
0	7279	1754.046925810143	1
0	7285	1754.807823195708	0
0	7296	1756.363894510316	1
0	7300	1756.517199042177	2
0	7301	1757.383772323665	1
0	7310	1759.647217103638	0
0	7321	1763.91897693828	1
0	7327	1767.245060398136	2
0	7329	1767.497952600054	3
0	7330	1767.556840557763	2
0	7336	1767.939339940716	3
0	7339	1769.066009679998	4
0	7340	1769.372817277346	3
0	7345	1769.479024598221	2
0	7351	1769.58778944442	3
0	7354	1770.544787550866	2
0	7359	1771.339483893895	1
0	7364	1772.785335133211	0
0	7380	1774.381400526259	1
0	7382	1775.819653120786	2
0	7387	1776.723493449826	1
0	7393	1776.803033111401	2
0	7394	1777.160756526473	1
0	7400	1778.048535306649	0
0	7452	1787.499473546238	1
0	7453	1787.966396940649	0
0	7466	1789.631618379928	1
0	7467	1790.375553053262	0
0	7481	1793.548397832951	1
0	7483	1795.464017400435	2
0	7488	1798.330620883836	1
0	7493	1798.384700661507	0
0	7557	1808.379251370478	1
0	7559	1808.815581320029	0
0	7597	1814.721292854148	1
0	7600	1815.31124593077	2
0	7602	1815.898587785276	1
0	7608	1816.346851166599	2
0	7609	1816.509286645773	1
0	7616	1817.383447829721	0
0	7628	1818.170961252593	1
0	7634	1823.663628536289	0
0	7685	1833.129069852522	1
0	7686	1834.860704342787	0
0	7715	1848.03488791654	1
0	7716	1848.354373174524	0
0	7724	1850.19276975559	1
0	7726	1850.448500218191	0
0	7778	1869.820855007035	1
0	7780	1869.831686086348	2
0	7781	1870.272365697743	1
0	7789	1874.296464170289	0
0	7808	1878.17103138594	1
0	7810	1878.450967702723	2
0	7811	1879.970512984923	1
0	7819	1880.461277726399	2
0	7821	1881.655589436914	3
0	7822	1881.712114741706	2
0	7828	1881.856667375675	1
0	7834	1882.207309802072	0
0	7853	1887.500917509925	1
0	7856	1888.627682027989	0
0	7879	1894.406455949777	1
0	7881	1896.361464621517	2
0	7883	1897.936850162079	3
0	7884	1899.7058319558	2
0	7889	1899.74678005008	1
0	7894	1900.765878569141	0
0	7909	1904.272506334957	1
0	7912	1905.082231039129	0
0	7920	1905.941399615794	1
0	7922	1907.600657430299	2
0	7925	1910.046737946581	1
0	7932	1914.459026823898	2
0	7934	1915.274685608872	1
0	7941	1917.19911914719	0
0	7977	1926.290630709811	1
0	7978	1926.962110926224	0
0	7999	1932.332116839138	1
0	8001	1933.897166318145	0
0	8007	1934.469741904068	1
0	8008	1934.571654551224	0
0	8093	1966.281823186494	1
0	8094	1966.864198615501	0
0	8101	1968.049439425095	1
0	8103	1969.089771237934	0
0	8112	1970.390370390535	1
0	8113	1972.023241504673	0
0	8180	1985.414416804084	1
0	8181	1985.431932068462	0
0	8211	1998.281294253585	1
0	8212	1998.813597891646	0
0	8226	2001.936798502871	1
0	8227	2003.057380294996	0
0	8274	2019.558013053097	1
0	8275	2020.149121932724	0
0	8349	2052.354036278148	1
0	8355	2056.993328545712	2
0	8357	2057.38717835447	3
0	8359	2058.438433624396	4
0	8361	2058.792623615295	5
0	8365	2059.821050160606	6
0	8370	2064.889932088113	5
0	8375	2065.204482591741	4
0	8383	2066.815576300045	5
0	8384	2067.734106333522	4
0	8389	2067.91869811012	3
0	8393	2068.094254197256	4
0	8401	2071.821879198517	5
0	8402	2072.752778505255	4
0	8407	2073.112947402918	3
0	8412	2073.264648057316	2
0	8419	2076.653919465432	1
0	8425	2076.955394293055	0
0	8450	2084.763074444401	1
0	8451	2088.108267478669	0
0	8458	2088.502610543978	1
0	8459	2089.742751890566	0
0	8472	2091.01051975808	1
0	8475	2091.603817483437	2
0	8476	2091.746044140655	1
0	8482	2092.020798222081	0
0	8502	2101.871046750285	1
0	8504	2102.598422667293	2
0	8506	2102.942750740862	3
0	8507	2103.068910448495	2
0	8514	2103.361953341523	3
0	8517	2103.696363906798	2
0	8522	2103.947422854374	1
0	8526	2103.953990934362	2
0	8529	2104.589063068584	1
0	8534	2104.846497894165	0
0	8569	2110.102353494304	1
0	8571	2111.152057670426	2
0	8572	2111.568148878397	1
0	8580	2113.354798579199	0
0	8658	2143.557721552977	1
0	8659	2144.724557394019	0
0	8705	2152.480051805544	1
0	8706	2153.323563597846	0
0	8725	2156.781271704117	1
0	8731	2159.660045379327	2
0	8735	2161.912212886637	3
0	8736	2162.165857068293	2
0	8743	2162.731347403245	3
0	8744	2165.357378862144	2
0	8750	2166.42795827974	1
0	8755	2166.479669522046	0
0	8770	2168.686830022361	1
0	8771	2168.864609742745	0
0	8778	2169.775743630658	1
0	8779	2170.130585825823	0
0	8816	2176.64898979943	1
0	8818	2178.890997564188	2
0	8819	2179.149247254118	1
0	8825	2180.167699923102	0
0	8845	2183.291095912238	1
0	8848	2184.369843505326	0
0	8868	2193.083166312469	1
0	8869	2193.904254616672	0
0	8889	2202.79829580443	1
0	8891	2203.160629051954	0
0	8905	2206.011384994449	1
0	8906	2207.368978001112	0
0	8932	2210.471826086703	1
0	8936	2211.818385366389	0
0	8940	2212.027329065098	1
0	8946	2213.00378044396	2
0	8949	2214.266912902003	1
0	8957	2216.338137180937	2
0	8958	2216.875018490728	1
0	8964	2217.785035807438	2
0	8967	2220.670441341741	3
0	8968	2220.82900265639	2
0	8975	2224.422420638282	3
0	8976	2224.530492149012	2
0	8982	2226.644967129991	1
0	8990	2228.896681119673	0
0	9003	2231.484302651161	1
0	9004	2231.715852728476	0
0	9014	2233.581336724066	1
0	9018	2234.34318037268	2
0	9021	2235.32299688464	1
0	9027	2235.436593035513	2
0	9028	2235.669544869651	1
0	9035	2235.993529570757	0
0	9046	2238.398554050408	1
0	9047	2239.718254313579	0
0	9104	2254.031169239222	1
0	9108	2254.677847635985	2
0	9109	2255.020436383256	1
0	9116	2255.900652512716	2
0	9117	2256.971925133255	1
0	9122	2257.281951770699	0
0	9128	2257.594214661491	1
0	9129	2257.641626610818	0
0	9135	2259.623930436224	1
0	9139	2260.720714694872	0
0	9147	2261.792776467526	1
0	9148	2261.96560813019	0
0	9178	2272.094828682341	1
0	9179	2273.333056177117	0
0	9210	2282.844689378446	1
0	9214	2283.537042878539	0
0	9241	2293.128724228817	1
0	9243	2293.280577109552	2
0	9244	2293.915621527185	1
0	9251	2294.490539626089	0
0	9263	2296.37904820597	1
0	9266	2296.513655246056	2
0	9267	2296.818848459785	1
0	9274	2298.537379253123	2
0	9276	2298.650687725241	3
0	9277	2298.678469688953	2
0	9285	2299.140917710252	1
0	9291	2299.427779998757	2
0	9292	2299.95290421368	1
0	9297	2300.508640550016	0
0	9326	2307.872124296052	1
0	9330	2309.328434315778	2
0	9331	2310.709067880701	1
0	9336	2312.063766250855	0
0	9343	2313.833602265557	1
0	9345	2316.324049873945	0
0	9360	2318.234078885178	1
0	9362	2319.613905210884	2
0	9365	2319.859761098574	3
0	9367	2323.60254171226	2
0	9374	2325.691336439008	1
0	9380	2327.656368687034	0
0	9401	2335.670000818004	1
0	9402	2335.906765337758	0
0	9408	2336.361907591725	1
0	9409	2337.406878550021	0
0	9458	2353.749061848926	1
0	9461	2354.637103194331	0
0	9501	2361.886461526505	1
0	9502	2362.111707543529	0
0	9516	2371.502931326964	1
0	9519	2374.944047359883	0
0	9534	2382.048913741325	1
0	9537	2382.680947853404	0
0	9599	2400.465680658843	1
0	9600	2400.508330738189	0
0	9611	2401.622826310052	1
0	9612	2401.698986337564	0
0	9616	2402.835929941444	1
0	9621	2404.064823322102	2
0	9624	2404.568699543143	1
0	9633	2406.744123639427	0
0	9640	2408.646075917291	1
0	9644	2410.728584553698	2
0	9645	2411.081581486157	1
0	9650	2411.243722451512	0
0	9677	2421.459443389406	1
0	9678	2421.825979256918	0
0	9701	2425.989104052012	1
0	9703	2426.285362187461	2
0	9707	2427.974977224321	3
0	9709	2431.679203502703	4
0	9710	2432.673658245273	3
0	9715	2432.74899707898	2
0	9720	2432.845347326356	1
0	9724	2433.018730118728	2
0	9727	2434.544050883391	1
0	9732	2436.091773069065	0
0	9736	2436.556372975034	1
0	9738	2436.561266024629	2
0	9743	2439.986360580983	1
0	9748	2440.250754499286	0
0	9765	2445.12176486378	1
0	9769	2450.09018299359	0
0	9798	2455.977866968878	1
0	9803	2460.832702645185	0
0	9809	2461.204395067572	1
0	9814	2462.471961413617	0
0	9831	2467.870796831545	1
0	9833	2467.926852379826	2
0	9834	2468.422710301322	1
0	9840	2468.625295432861	2
0	9843	2469.353018009433	3
0	9844	2469.66229495582	2
0	9849	2470.128819548615	1
0	9855	2470.571177166415	2
0	9859	2471.990873364735	3
0	9861	2472.027841996	4
0	9864	2473.795930748093	5
0	9865	2474.141318728079	4
0	9871	2474.649354946242	3
0	9877	2475.039865462403	2
0	9888	2479.679821147364	1
0	9895	2480.550931789363	2
0	9896	2481.239905949626	1
0	9901	2482.447056452323	0
0	9920	2486.607805547357	1
0	9921	2488.409058929055	0
0	9936	2491.360509144863	1
0	9939	2491.730839033911	0
0	9945	2492.969185025792	1
0	9946	2493.538639279552	0
0	9952	2493.609590996901	1
0	9954	2496.622891297481	0
0	10007	2512.937304957955	1
0	10009	2514.256863378975	0
0	10032	2520.255235087933	1
0	10034	2520.665568770128	2
0	10036	2520.777036374497	3
0	10037	2521.067491224748	2
0	10043	2521.41376085878	3
0	10046	2522.208160576822	4
0	10047	2522.283719203859	3
0	10054	2524.317721993424	2
0	10060	2524.462927189706	1
0	10067	2525.917120965501	2
0	10069	2526.452861824465	3
0	10070	2526.4943594536	2
0	10076	2527.344055414467	1
0	10082	2528.472688345395	0
0	10089	2529.425548161589	1
0	10091	2529.531246320821	0
0	10113	2536.351399370574	1
0	10115	2537.617366864993	2
0	10117	2537.69296950288	3
0	10118	2537.788158566498	2
0	10125	2539.354046393146	1
0	10130	2539.577450878017	0
0	10141	2543.574685726	1
0	10149	2548.329051285588	0
0	10157	2548.87358486527	1
0	10160	2549.529941841744	0
0	10164	2551.876178995949	1
0	10167	2552.95103131526	0
0	10195	2556.379588234443	1
0	10198	2557.31053157342	0
0	10215	2559.815476779469	1
0	10217	2561.5342937176	2
0	10223	2568.523115962024	1
0	10229	2570.212406190771	0
0	10235	2570.352992918778	1
0	10237	2570.439727673938	2
0	10238	2570.808199801721	1
0	10244	2572.699142815426	0
0	10279	2579.347170050652	1
0	10288	2583.003569158189	0
0	10295	2583.14831587565	1
0	10296	2583.368308363247	0
0	10304	2583.811418747534	1
0	10308	2585.517842230814	2
0	10309	2585.746919286641	1
0	10315	2587.602042515209	0
0	10344	2594.074373799467	1
0	10346	2595.273292214199	2
0	10348	2596.094253574958	3
0	10351	2596.734957173724	2
0	10357	2597.056010182089	3
0	10360	2599.185064269253	2
0	10368	2601.120163742179	1
0	10373	2601.228990692597	0
0	10387	2601.91634949088	1
0	10391	2603.270208573927	2
0	10393	2603.440633375964	3
0	10394	2605.671740669062	2
0	10401	2607.208683213087	3
0	10402	2607.40024767806	2
0	10410	2609.002331130262	3
0	10412	2609.615007487888	2
0	10417	2610.040278653384	1
0	10431	2614.162583491014	0
0	10452	2617.943559571471	1
0	10455	2618.669927737108	0
0	10470	2621.257233569204	1
0	10474	2622.101114542856	2
0	10476	2622.536399902182	3
0	10478	2622.775605400925	4
0	10480	2625.277261743117	5
0	10483	2626.254161337055	4
0	10489	2626.913092137046	3
0	10495	2627.200979095886	2
0	10501	2627.718257452834	1
0	10507	2629.456436526934	0
0	10524	2631.102434960388	1
0	10526	2633.19986973459	2
0	10529	2635.349821883227	3
0	10530	2636.057585651456	2
0	10536	2636.640760038788	1
0	10542	2638.350687177628	2
0	10543	2638.479369684721	1
0	10548	2638.816684640155	0
0	10592	2648.948578702139	1
0	10595	2649.400558493627	0
0	10620	2654.241117213518	1
0	10622	2655.879173637188	0
0	10636	2657.586112239172	1
0	10637	2658.862006529854	0
0	10666	2668.547297973743	1
0	10670	2670.143143041875	2
0	10671	2671.141464210499	1
0	10677	2671.207448827009	2
0	10681	2671.897289101242	3
0	10682	2672.212684800223	2
0	10687	2672.593581939185	1
0	10692	2673.34985337498	0
0	10721	2690.560626764941	1
0	10723	2691.823175824351	0
0	10729	2693.291633571215	1
0	10730	2694.327767393198	0
0	10745	2698.148414601046	1
0	10747	2699.41763503156	2
0	10749	2700.345567732986	3
0	10750	2700.43797617542	2
0	10756	2700.541884245414	3
0	10759	2700.818688002406	2
0	10765	2701.157790018524	3
0	10766	2701.367068553361	2
0	10771	2702.829397036527	1
0	10779	2705.631926236415	0
0	10818	2715.295985679244	1
0	10819	2716.125395456513	0
0	10844	2724.094316153395	1
0	10846	2725.156120919038	2
0	10849	2725.62905176707	1
0	10857	2726.526850668263	0
0	10891	2745.61751195585	1
0	10894	2749.132296138544	0
0	10930	2758.80734946783	1
0	10932	2760.039875322776	0
0	10966	2769.436378246759	1
0	10967	2770.698346387478	0
0	10973	2770.81039203722	1
0	10975	2771.179253765242	0
0	10981	2771.522738234591	1
0	10982	2772.197876804978	0
0	10989	2773.38887370361	1
0	10992	2774.103580064008	0
0	11006	2776.575039762305	1
0	11007	2777.10335304507	0
0	11019	2785.527171206628	1
0	11021	2787.261184129592	2
0	11024	2790.65992813883	1
0	11031	2791.387265301158	0
0	11049	2794.890283506343	1
0	11053	2795.858487224968	2
0	11055	2796.030673387232	1
0	11060	2796.314555154876	0
0	11066	2796.8931718961	1
0	11067	2797.72824893296	0
0	11153	2825.464498898563	1
0	11155	2825.49738612273	2
0	11156	2825.517907924339	1
0	11161	2825.952263295662	0
0	11185	2834.401297141759	1
0	11186	2835.12246921466	0
0	11206	2838.935056101809	1
0	11207	2839.514980955196	0
0	11213	2839.719283710183	1
0	11215	2840.812698478859	2
0	11218	2843.028233875254	3
0	11220	2843.556220726698	2
0	11226	2843.627684704045	1
0	11234	2844.266823960812	2
0	11235	2844.819308563013	1
0	11240	2844.982627871675	0
0	11256	2849.114726295298	1
0	11258	2850.107491274502	2
0	11261	2850.358254891701	1
0	11266	2850.670278224709	0
0	11281	2856.407853954313	1
0	11282	2857.465972650201	0
0	11307	2864.334910066081	1
0	11309	2864.464610241299	2
0	11311	2864.932990210875	3
0	11312	2866.53761721197	2
0	11317	2867.069732898903	1
0	11324	2868.961955859926	0
0	11328	2869.334297087011	1
0	11330	2869.478464229277	2
0	11333	2870.494859340912	1
0	11339	2870.701704708737	2
0	11345	2873.967522421823	3
0	11349	2875.266266750929	2
0	11357	2875.580291214355	3
0	11358	2876.128800092804	2
0	11363	2878.02278133007	1
0	11370	2881.923690425522	2
0	11373	2884.864847765587	1
0	11379	2885.155526346501	2
0	11381	2885.874636078924	3
0	11384	2886.62191059677	2
0	11389	2887.916978449165	1
0	11393	2889.427185076567	2
0	11395	2889.459173461053	3
0	11400	2890.741088329921	4
0	11401	2891.329581305678	3
0	11407	2891.611243106966	4
0	11409	2892.472574298893	5
0	11413	2894.223608184059	4
0	11418	2894.371839620602	3
0	11424	2894.946771046426	4
0	11429	2897.586944945084	5
0	11433	2899.573673806169	6
0	11434	2899.937177993184	5
0	11442	2901.606540281043	6
0	11444	2902.308848726395	7
0	11445	2902.883933102698	6
0	11451	2903.853756858798	5
0	11456	2905.688440370524	4
0	11466	2911.077859627396	5
0	11467	2911.251862069656	4
0	11473	2914.843108372162	3
0	11479	2915.257208009637	2
0	11485	2915.355451880533	3
0	11487	2915.572317366868	2
0	11493	2915.850660083501	1
0	11498	2916.069727949266	0
0	11521	2918.830916182565	1
0	11522	2918.876456437837	0
0	11553	2925.015102834459	1
0	11558	2925.809759835017	0
0	11580	2933.98222516941	1
0	11584	2935.148551025377	0
0	11603	2937.775284894743	1
0	11604	2937.833403948496	0
0	11610	2938.512995718614	1
0	11611	2938.899756013727	0
0	11622	2939.504152627493	1
0	11624	2940.146943079958	2
0	11625	2940.55115518423	1
0	11635	2943.101084989554	0
0	11663	2951.316475233291	1
0	11664	2952.525565162287	0
0	11684	2955.005043541737	1
0	11686	2955.362809989332	2
0	11689	2955.560059568253	1
0	11696	2958.364799413289	0
0	11709	2959.492910681583	1
0	11710	2959.86370754192	0
0	11721	2962.38977968951	1
0	11722	2963.4574658108	0
0	11745	2967.879965104033	1
0	11746	2968.889200129436	0
0	11788	2980.35558170142	1
0	11794	2984.763319671761	0
0	11800	2985.559403843575	1
0	11801	2985.797532688782	0
0	11822	2987.997051642686	1
0	11823	2988.741825899313	0
0	11832	2989.839001613295	1
0	11836	2990.75168284508	0
0	11865	2999.643965115494	1
0	11869	3000.872140001346	2
0	11872	3002.288789737998	1
0	11880	3003.19370150008	0
0	11886	3003.396744268135	1
0	11889	3004.425910071601	2
0	11892	3005.981036786261	1
0	11897	3006.33366507597	0
0	11903	3009.7620556388	1
0	11906	3012.293954793226	0
0	11912	3012.336300061943	1
0	11914	3012.499636577614	2
0	11916	3012.537929869435	3
0	11918	3015.081562673644	2
0	11926	3016.328727558848	3
0	11928	3016.382238948793	4
0	11929	3016.656204499276	3
0	11934	3016.739822324704	2
0	11940	3018.274503429884	3
0	11942	3018.496717362747	4
0	11945	3020.938158720344	3
0	11951	3021.771084231312	4
0	11952	3022.086487310628	3
0	11957	3022.822072450236	2
0	11968	3024.77983367716	1
0	11976	3025.966325948105	2
0	11979	3026.396103048201	1
0	11984	3026.588828680964	0
0	11995	3027.860797569527	1
0	11996	3028.076316273191	0
0	12002	3030.573560133056	1
0	12004	3030.871911735289	0
0	12010	3031.004676428866	1
0	12011	3031.036433779573	0
0	12015	3031.337217540195	1
0	12020	3033.645994867015	0
0	12031	3034.105188416726	1
0	12035	3035.289000935902	0
0	12052	3037.810372522912	1
0	12055	3039.82358418538	0
0	12078	3045.514024701267	1
0	12079	3045.6178572388	0
0	12101	3048.973824995105	1
0	12102	3049.384551141661	0
0	12114	3050.800053101305	1
0	12115	3050.999413143347	0
0	12121	3051.426132580371	1
0	12123	3051.47333020669	0
0	12132	3052.003074004623	1
0	12134	3052.389583911348	2
0	12140	3055.400977065339	1
0	12145	3055.495892931377	0
0	12151	3055.803231077762	1
0	12156	3057.545644566984	0
0	12168	3059.288163435616	1
0	12170	3060.049311483395	2
0	12171	3060.777965520976	1
0	12177	3061.137134279068	2
0	12178	3061.334552937282	1
0	12186	3062.189358561879	2
0	12190	3063.470046074719	1
0	12194	3063.733771268581	2
0	12199	3065.983688513514	1
0	12204	3068.295312361274	0
0	12213	3070.42189328543	1
0	12216	3072.362741929362	0
0	12233	3073.633047936551	1
0	12235	3073.921417644964	0
0	12242	3074.386152205847	1
0	12243	3075.176890650324	0
0	12260	3081.428646371699	1
0	12261	3081.482629055971	0
0	12271	3082.161659859799	1
0	12273	3082.220603042416	2
0	12278	3084.291587914681	1
0	12283	3084.918844771581	0
0	12292	3085.160379395509	1
0	12294	3086.116852607506	2
0	12296	3087.840635216045	3
0	12299	3087.981984540214	2
0	12306	3091.134802376579	1
0	12313	3092.995429462126	0
0	12345	3109.32769166313	1
0	12346	3109.355700786906	0
0	12375	3121.052744482441	1
0	12376	3121.853405693489	0
0	12401	3130.163867970027	1
0	12402	3131.200501405616	0
0	12488	3158.974029863167	1
0	12490	3159.431943169881	0
0	12512	3167.446634966006	1
0	12513	3167.500457882957	0
0	12537	3175.3972329948	1
0	12538	3176.061243565811	0
0	12552	3192.233343293004	1
0	12554	3192.814350117487	2
0	12558	3192.965812349132	3
0	12559	3193.877075303586	2
0	12564	3193.911531501588	1
0	12571	3195.674257969804	0
0	12598	3202.366626801239	1
0	12601	3205.399691494216	0
0	12617	3207.54678071871	1
0	12620	3208.979815332045	0
0	12644	3218.202128006354	1
0	12646	3218.640214842251	2
0	12648	3218.900591329304	3
0	12649	3219.392250057435	2
0	12654	3219.575454829773	1
0	12659	3220.668443780317	0
0	12674	3227.301977622189	1
0	12676	3227.609663835809	2
0	12677	3228.210540544486	1
0	12681	3228.309530525927	2
0	12685	3229.541315343604	3
0	12687	3230.713625256615	4
0	12691	3231.676059980682	5
0	12693	3231.852901669245	6
0	12695	3234.672024359946	7
0	12696	3234.879102815574	6
0	12701	3234.965643952831	5
0	12706	3238.688241126691	4
0	12711	3240.244835344145	3
0	12719	3242.794289738914	2
0	12724	3242.870131780056	1
0	12730	3244.355218561828	2
0	12731	3245.42959654113	1
0	12735	3245.435098287464	2
0	12742	3250.72892721324	3
0	12743	3250.958469277333	2
0	12749	3251.825149450235	1
0	12754	3251.850319696686	0
0	12758	3252.018557278434	1
0	12763	3254.888808634921	2
0	12766	3255.359419666771	3
0	12769	3256.166795634277	2
0	12774	3256.481596756825	1
0	12780	3256.81206094499	2
0	12783	3257.159194627638	1
0	12789	3259.978315538298	0
0	12813	3262.441863502462	1
0	12814	3263.252700072373	0
0	12823	3265.830579097294	1
0	12824	3266.749147615362	0
0	12843	3268.927616004113	1
0	12847	3270.588086383554	2
0	12850	3272.322013575105	3
0	12852	3273.787473766902	4
0	12853	3276.037870139447	3
0	12860	3276.080467288574	2
0	12866	3276.987379258004	1
0	12876	3280.584985384066	0
0	12905	3283.32788809251	1
0	12912	3284.078949630358	2
0	12913	3284.751446968882	1
0	12918	3284.759339711496	0
0	12936	3288.700193191152	1
0	12942	3292.951744106463	0
0	12977	3299.557829996555	1
0	12980	3300.525556804061	2
0	12985	3302.751132407139	3
0	12986	3304.235642964682	2
0	12993	3304.62336198524	1
0	12998	3306.775125341633	0
0	13005	3307.837479538696	1
0	13008	3309.188001910843	2
0	13009	3311.030307441907	1
0	13015	3312.229052027693	0
0	13029	3315.299715184717	1
0	13033	3316.136803437341	2
0	13036	3316.303365206956	1
0	13043	3316.541234254517	0
0	13047	3316.652283734824	1
0	13049	3317.549418069783	2
0	13054	3320.413451650913	1
0	13059	3320.556157876397	0
0	13079	3327.372119380595	1
0	13083	3328.644911424323	2
0	13084	3328.959325713446	1
0	13089	3329.439207573815	0
0	13095	3330.19494418554	1
0	13097	3330.427527469364	2
0	13098	3331.001173777717	1
0	13106	3332.695456761033	2
0	13107	3333.618179308732	1
0	13112	3333.660943166675	0
0	13138	3337.159419454205	1
0	13141	3338.159304096211	2
0	13143	3339.378411925648	3
0	13144	3339.652367955781	2
0	13149	3340.249351439783	1
0	13154	3341.660253646121	0
0	13179	3350.226878867825	1
0	13184	3351.849249561971	2
0	13185	3352.1343261969	1
0	13192	3352.596825400464	0
0	13246	3372.205083036596	1
0	13248	3372.728103257563	2
0	13249	3373.539476728729	1
0	13255	3375.292414120509	0
0	13301	3392.658770074864	1
0	13302	3392.735410034971	0
0	13316	3400.613638715401	1
0	13317	3401.662515829269	0
0	13339	3405.071969717282	1
0	13340	3405.185172329425	0
0	13402	3425.903046784181	1
0	13405	3426.367536992703	0
0	13444	3435.276798717255	1
0	13445	3435.302417680433	0
0	13449	3435.777161496668	1
0	13453	3438.256296588498	0
0	13515	3452.540707958346	1
0	13520	3455.718445787731	2
0	13521	3456.87617161243	1
0	13528	3458.741505125752	2
0	13529	3458.877019158134	1
0	13534	3459.511402418614	0
0	13540	3462.577415493165	1
0	13542	3463.252913546073	0
0	13553	3464.549815043066	1
0	13556	3465.933356824385	0
0	13569	3467.564561862904	1
0	13571	3468.445505663144	2
0	13572	3468.453918879876	1
0	13580	3469.644953481664	2
0	13584	3470.096528443011	3
0	13586	3470.25142055894	4
0	13588	3472.756815998457	3
0	13593	3472.767662858077	2
0	13601	3474.76214620432	1
0	13607	3474.960713201232	2
0	13608	3475.118204252161	1
0	13614	3475.630135043759	0
0	13622	3476.301735025525	1
0	13623	3476.787421323165	0
0	13641	3477.656270209124	1
0	13642	3477.883691381314	0
0	13655	3480.81966549629	1
0	13660	3484.438089164211	0
0	13681	3487.352375720113	1
0	13685	3490.189192776584	2
0	13687	3490.807025138893	3
0	13688	3491.012119926742	2
0	13694	3492.183125664798	1
0	13700	3492.619503752576	0
0	13715	3495.573710308657	1
0	13718	3497.674891780382	0
0	13724	3497.81894079564	1
0	13728	3500.616697759988	0
0	13748	3501.570296297604	1
0	13749	3501.812604926885	0
0	13768	3511.139435979746	1
0	13770	3511.178004398191	2
0	13772	3511.853738705722	3
0	13774	3511.882243584588	4
0	13779	3513.739179405775	3
0	13784	3513.929406154685	2
0	13789	3514.08307903418	1
0	13793	3514.511734085751	2
0	13799	3516.988524791647	3
0	13800	3518.211381399907	2
0	13807	3519.16624883485	3
0	13808	3519.985818988298	2
0	13815	3521.455080687464	3
0	13816	3521.525803735037	2
0	13823	3521.935825540211	3
0	13826	3522.230941161637	4
0	13827	3523.285153595159	3
0	13835	3524.356730879688	4
0	13836	3525.018293877569	3
0	13841	3525.603950485187	2
0	13847	3526.854113472203	3
0	13848	3526.955146294442	2
0	13854	3527.49634680249	3
0	13856	3527.622864965608	2
0	13861	3527.97497658933	1
0	13866	3529.459241850137	0
0	13886	3532.435492534986	1
0	13888	3532.812961873746	2
0	13889	3533.057056992888	1
0	13895	3533.697908483374	2
0	13898	3533.957719197157	3
0	13899	3534.671215431812	2
0	13904	3535.042491305922	1
0	13909	3536.146681916767	0
0	13913	3537.188645422195	1
0	13916	3537.25103517893	0
0	13920	3537.781773865301	1
0	13926	3539.341786969187	2
0	13929	3539.44080326691	1
0	13935	3540.717388600028	0
0	13951	3542.436651819877	1
0	13952	3542.821756875972	0
0	13972	3545.074092208314	1
0	13973	3545.42623676067	0
0	13980	3547.226253801568	1
0	13981	3547.261340442901	0
0	13991	3548.202314055877	1
0	13995	3549.842838407412	2
0	13996	3550.738833582963	1
0	14001	3550.778133829008	0
0	14026	3557.843724584306	1
0	14027	3558.692683168189	0
0	14051	3561.887802640203	1
0	14052	3562.179964755956	0
0	14082	3573.157244029274	1
0	14083	3573.323261466153	0
0	14097	3578.762632005861	1
0	14098	3578.894720694788	0
0	14104	3579.035769186159	1
0	14105	3580.265191580215	0
0	14136	3589.314988880423	1
0	14138	3590.500486993876	2
0	14139	3590.568142743292	1
0	14146	3591.922491899105	0
0	14190	3600.737879342147	1
0	14191	3602.421839652455	0
0	14197	3603.443634784388	1
0	14199	3603.449726585239	2
0	14200	3604.767650902923	1
0	14206	3605.235971014899	0
0	14232	3612.776877475996	1
0	14233	3613.868876862569	0
0	14255	3622.975960058032	1
0	14256	3623.097823304735	0
0	14300	3632.171220061317	1
0	14301	3632.263681117908	0
0	14334	3645.416314233649	1
0	14335	3645.501775852869	0
0	14371	3649.277659935986	1
0	14373	3649.375709882926	2
0	14374	3649.816927007724	1
0	14380	3649.851629284333	2
0	14383	3651.686703228779	1
0	14387	3652.970235523337	2
0	14392	3654.74591821307	3
0	14393	3654.788657281197	2
0	14399	3655.559966111708	3
0	14400	3656.853116612893	2
0	14408	3658.29967992401	1
0	14415	3660.77192965527	2
0	14417	3662.700973667994	1
0	14422	3662.881530595373	0
0	14499	3695.049792600477	1
0	14500	3695.387200960609	0
0	14553	3703.305971941977	1
0	14554	3703.840920006355	0
0	14586	3713.051842645888	1
0	14587	3713.197849039278	0
0	14608	3714.837778673217	1
0	14609	3715.104432850148	0
0	14631	3718.860454704327	1
0	14634	3719.971060273657	2
0	14636	3720.862721256105	1
0	14641	3721.560787686972	0
0	14659	3725.580530449385	1
0	14661	3726.171307396055	2
0	14664	3727.017998156101	1
0	14669	3727.053076742511	0
0	14673	3727.096142735197	1
0	14678	3728.332294961048	2
0	14679	3728.41702063238	1
0	14685	3730.919389751312	0
0	14696	3732.845254388849	1
0	14701	3733.603750363564	0
0	14720	3737.116655232828	1
0	14721	3737.514737927875	0
0	14735	3747.556842010806	1
0	14737	3748.286323164944	2
0	14740	3750.101208701693	1
0	14752	3752.314036537971	2
0	14757	3754.192228977693	1
0	14763	3754.74224480221	0
0	14775	3755.373285984921	1
0	14780	3757.287236831665	2
0	14782	3759.660252933915	3
0	14783	3759.825191620465	2
0	14789	3760.563508885677	1
0	14799	3763.055219575391	0
0	14811	3764.112767073819	1
0	14813	3764.384275276308	0
0	14833	3766.702185451934	1
0	14835	3768.725284727843	0
0	14852	3771.058251088793	1
0	14853	3771.315444141523	0
0	14873	3774.617186902829	1
0	14874	3776.019751346167	0
0	14884	3776.884542493113	1
0	14889	3778.562678608232	2
0	14890	3780.450988130113	1
0	14895	3782.005850401429	0
0	14901	3782.360024769313	1
0	14902	3782.872237228304	0
0	14910	3784.828519246555	1
0	14913	3785.151394130738	0
0	14945	3797.924045368206	1
0	14946	3797.961847515024	0
0	14952	3798.11994787814	1
0	14956	3799.484637091418	2
0	14958	3799.532949004784	3
0	14961	3799.930456238858	4
0	14963	3800.100742888682	5
0	14965	3802.169022930676	6
0	14966	3802.650908529198	5
0	14973	3803.376264158669	6
0	14974	3805.846658834847	5
0	14982	3807.685943405003	6
0	14986	3808.994490582811	7
0	14994	3811.493385004192	6
0	14999	3812.068640456919	5
0	15004	3812.717008748361	4
0	15008	3812.836950929203	5
0	15010	3814.865778079999	6
0	15013	3816.163637811802	5
0	15018	3817.341639990837	4
0	15023	3817.651764586387	3
0	15028	3820.959137225039	2
0	15036	3824.700429707547	3
0	15037	3826.454245514708	2
0	15043	3826.546701756795	3
0	15045	3827.912980548708	4
0	15047	3828.244942697869	5
0	15048	3828.293228376284	4
0	15053	3829.67885157862	3
0	15058	3830.432694893155	2
0	15064	3831.136357899165	3
0	15067	3831.631572760054	2
0	15078	3834.790779648418	1
0	15084	3836.753761151687	0
0	15107	3844.429827392476	1
0	15108	3844.743966159948	0
0	15116	3845.57485618263	1
0	15117	3846.72835024116	0
0	15128	3847.421932584555	1
0	15129	3847.667038548412	0
0	15144	3850.308336625643	1
0	15152	3852.842602877818	0
0	15161	3853.46697461421	1
0	15164	3854.172553285848	0
0	15175	3858.373635730496	1
0	15177	3858.70418017251	2
0	15182	3863.029547182893	3
0	15183	3863.33932766983	2
0	15189	3863.586859755803	3
0	15190	3864.280532141492	2
0	15194	3864.571945266819	3
0	15199	3865.475072652044	4
0	15202	3865.699280356948	3
0	15207	3865.971523348405	2
0	15212	3866.501506026117	1
0	15218	3868.001291880045	0
0	15228	3869.183025973471	1
0	15230	3869.374013571331	2
0	15232	3870.082304708023	3
0	15233	3871.684701413108	2
0	15237	3871.813308122477	3
0	15239	3872.578105176979	4
0	15241	3873.699629445229	5
0	15244	3874.753752524351	4
0	15248	3875.056785682579	5
0	15251	3875.822146314832	4
0	15262	3880.128086994613	5
0	15264	3881.505188768775	4
0	15269	3881.743166567738	3
0	15274	3882.407920206185	2
0	15279	3883.388513556918	1
0	15283	3883.894319713995	2
0	15285	3884.030944069514	3
0	15289	3885.554796682078	4
0	15291	3885.686794585863	5
0	15292	3886.087804191713	4
0	15297	3886.150854789264	3
0	15302	3889.819682965322	2
0	15308	3891.045649667548	3
0	15311	3892.385060691422	2
0	15315	3892.401851769345	3
0	15324	3898.670984722476	2
0	15329	3901.111087281464	1
0	15334	3901.148814359961	0
0	15342	3901.451211865412	1
0	15344	3902.056929656821	2
0	15345	3902.387571307232	1
0	15350	3902.479888928254	0
0	15375	3905.135976831559	1
0	15381	3906.914786858991	2
0	15383	3907.88469088742	1
0	15388	3908.997590615832	0
0	15398	3909.856976967197	1
0	15399	3909.945971728316	0
0	15407	3910.771512311009	1
0	15408	3910.959623017849	0
0	15422	3913.404994416041	1
0	15424	3916.253789308059	2
0	15427	3916.904554601515	1
0	15433	3916.930418612673	2
0	15435	3917.29720604792	1
0	15440	3917.860229863461	0
0	15447	3919.045248881796	1
0	15450	3920.231775681091	2
0	15452	3920.378479275822	1
0	15458	3920.97603612781	0
0	15464	3922.25789586815	1
0	15465	3922.322521622043	0
0	15492	3926.402168629795	1
0	15495	3928.719859740592	0
0	15501	3928.726868375405	1
0	15504	3929.13139774086	2
0	15506	3929.461328416553	3
0	15507	3929.917940266235	2
0	15512	3930.808328165085	1
0	15516	3931.093440979941	2
0	15519	3932.761819141748	1
0	15523	3933.00676561048	2
0	15525	3933.174297186122	3
0	15528	3933.939842578206	2
0	15534	3934.332920188749	3
0	15538	3936.050668547521	2
0	15543	3936.350138481346	1
0	15547	3938.351015443973	2
0	15552	3939.902643584326	1
0	15559	3940.354473370857	0
0	15582	3943.214513107741	1
0	15585	3944.814779905544	0
0	15594	3945.07095663716	1
0	15596	3945.213373508158	2
0	15600	3945.786157063258	3
0	15603	3948.779983624759	2
0	15608	3951.18114122246	1
0	15616	3952.950839375602	2
0	15629	3958.461492456553	1
0	15634	3958.776166199511	0
0	15641	3959.363368812091	1
0	15642	3959.411831324278	0
0	15663	3965.902372226285	1
0	15664	3966.158677752963	0
0	15679	3967.264109579139	1
0	15682	3967.932912139566	0
0	15686	3968.919873112364	1
0	15688	3969.103095204168	2
0	15693	3969.698824043576	3
0	15695	3970.141043646012	4
0	15696	3970.316065401258	3
0	15703	3971.434676251778	2
0	15709	3972.068082389256	1
0	15715	3972.42178234237	0
0	15731	3975.146297836727	1
0	15734	3976.081936187126	0
0	15761	3979.742778545076	1
0	15763	3979.792972925064	2
0	15765	3981.673773617164	3
0	15770	3982.375456806525	2
0	15776	3983.463913702807	1
0	15781	3984.199961688014	0
0	15788	3984.790308393566	1
0	15791	3985.778443459478	2
0	15792	3985.778969558633	1
0	15797	3985.83466684672	0
0	15835	3994.196599760421	1
0	15836	3996.32548528308	0
0	15844	3997.105937491526	1
0	15846	3999.423571550616	0
0	15863	4000.673645242179	1
0	15864	4000.944147419894	0
0	15871	4001.249108661333	1
0	15873	4001.816595829171	2
0	15875	4002.014191253294	3
0	15876	4002.499116463266	2
0	15881	4002.900438032737	1
0	15890	4003.866545926245	0
0	15897	4006.607805979002	1
0	15899	4007.415058236636	0
0	15908	4009.332247692529	1
0	15910	4009.612794207391	0
0	15931	4012.546006131764	1
0	15936	4013.180639360251	2
0	15937	4015.171176675689	1
0	15946	4016.430751738163	0
0	15963	4017.449625593299	1
0	15966	4019.286222225287	0
0	15972	4020.014206539155	1
0	15973	4020.283022724807	0
0	15990	4021.72259096422	1
0	15995	4022.872399719262	0
0	16011	4026.414369837839	1
0	16017	4028.318084650246	2
0	16018	4028.438490370658	1
0	16023	4028.527849254458	0
0	16029	4030.997466242976	1
0	16031	4032.717604836687	2
0	16036	4034.137798865641	1
0	16040	4036.817386060287	2
0	16047	4039.749355226635	3
0	16048	4039.926503537365	2
0	16054	4045.05091432519	3
0	16056	4045.322774696857	4
0	16059	4046.779706991309	3
0	16064	4047.973532257717	2
0	16069	4048.187205934801	1
0	16076	4048.50513407803	2
0	16077	4048.607748168319	1
0	16082	4048.950569214592	0
0	16094	4050.940040781383	1
0	16098	4052.173815379195	0
0	16115	4055.742469527311	1
0	16123	4056.92573891648	0
0	16137	4058.550192079405	1
0	16138	4060.415525068304	0
0	16144	4060.447191377077	1
0	16153	4061.591312901141	2
0	16154	4062.948914542328	1
0	16159	4063.917194394055	0
0	16172	4066.08082169139	1
0	16174	4066.206342614699	2
0	16179	4069.593099792116	1
0	16186	4070.977784995152	0
0	16207	4073.368368459682	1
0	16216	4076.820032568787	2
0	16221	4077.635266694878	3
0	16222	4079.090344241335	2
0	16229	4079.851117901287	3
0	16231	4080.297644534186	2
0	16239	4081.088772932399	1
0	16245	4081.508587148618	0
0	16258	4082.646556180647	1
0	16260	4083.388872676915	0
0	16267	4083.452602225406	1
0	16268	4083.499081719055	0
0	16293	4093.122384311638	1
0	16296	4094.031148753831	2
0	16297	4094.541064618606	1
0	16303	4094.838728130802	2
0	16305	4094.873297907082	3
0	16313	4095.954087035846	4
0	16314	4096.4209688688	3
0	16319	4096.927502593515	2
0	16324	4098.884377796229	1
0	16329	4100.542520841371	0
0	16379	4111.572006357689	1
0	16381	4113.536345560513	2
0	16383	4113.9959007793	3
0	16385	4114.275474217968	4
0	16387	4116.09856176539	5
0	16390	4120.75898648892	4
0	16395	4121.078011841883	3
0	16400	4121.480953100739	2
0	16407	4123.10081314404	1
0	16412	4124.615647201689	0
0	16416	4125.763461591318	1
0	16419	4126.749752776432	0
0	16430	4128.437631302375	1
0	16432	4129.304736514336	0
0	16443	4130.167715125241	1
0	16447	4134.168793024717	0
0	16462	4137.815440560088	1
0	16464	4137.921487419098	2
0	16465	4137.957870261548	1
0	16472	4139.029809637646	2
0	16474	4141.381667998899	3
0	16475	4141.43243767401	2
0	16481	4141.555474398845	1
0	16487	4142.994846338097	0
0	16504	4144.668259833887	1
0	16506	4145.157460078337	0
0	16523	4147.880206697826	1
0	16532	4154.382132397568	2
0	16533	4156.816768063	1
0	16538	4157.0983397764	0
0	16573	4164.25280417084	1
0	16574	4167.137204467679	0
0	16580	4168.26455847677	1
0	16582	4168.618752372676	0
0	16589	4168.870346793314	1
0	16590	4168.936221272487	0
0	16611	4175.425481843581	1
0	16612	4175.651728528671	0
0	16620	4177.398736770399	1
0	16622	4177.531770443725	2
0	16623	4178.074466865127	1
0	16629	4178.968080723249	0
0	16653	4185.042210286475	1
0	16657	4187.490011088415	2
0	16664	4188.870587243958	1
0	16669	4189.402098812267	0
0	16702	4198.535481308028	1
0	16705	4199.600603292914	0
0	16716	4202.281235110964	1
0	16717	4202.566795252961	0
0	16760	4214.927107178262	1
0	16761	4215.852263953914	0
0	16771	4216.700505016999	1
0	16772	4217.199577632643	0
0	16784	4218.649226293329	1
0	16785	4218.87507731997	0
0	16799	4223.098818677132	1
0	16800	4223.47991972946	0
0	16807	4224.524995354671	1
0	16809	4226.669067880249	0
0	16841	4235.028631226255	1
0	16842	4235.800968061202	0
0	16872	4258.919558951546	1
0	16873	4259.005861565882	0
0	16897	4262.834260808875	1
0	16899	4262.842092723902	2
0	16901	4265.225573138174	3
0	16902	4266.309855834323	2
0	16909	4267.193993844026	3
0	16911	4267.406830373803	4
0	16913	4269.484921767618	5
0	16916	4271.066038347477	4
0	16922	4271.807277393786	3
0	16930	4272.486251233785	2
0	16935	4272.843727713358	1
0	16942	4273.342556177435	0
0	16962	4278.745733824132	1
0	16964	4278.966923552755	2
0	16965	4278.980907084812	1
0	16970	4279.303796957598	0
0	16990	4284.422067187094	1
0	16991	4284.948262823762	0
0	17012	4291.07811924787	1
0	17016	4293.612341970324	2
0	17018	4294.701014562627	3
0	17019	4294.768264413812	2
0	17024	4295.195808253383	1
0	17030	4295.438631779033	2
0	17032	4295.627662741795	3
0	17035	4296.822350750661	4
0	17036	4297.888723261838	3
0	17041	4298.136745596978	2
0	17045	4299.034774037633	3
0	17047	4299.63671451486	4
0	17049	4301.108275669298	5
0	17053	4304.262373124166	4
0	17058	4304.516535622441	3
0	17064	4305.647148410976	2
0	17069	4305.685821127561	1
0	17078	4306.494296527601	0
0	17084	4307.365759718018	1
0	17086	4308.588685049685	2
0	17088	4309.448670306182	3
0	17090	4309.946071253469	4
0	17092	4310.175416236581	5
0	17096	4311.915704477888	4
0	17101	4312.239974325884	3
0	17107	4313.25753138056	4
0	17110	4314.616990931049	3
0	17115	4315.466813879563	2
0	17120	4316.138793658254	1
0	17125	4316.548548465229	0
0	17152	4321.570842042645	1
0	17155	4326.458232278505	0
0	17164	4327.392978027701	1
0	17171	4328.027293777337	2
0	17172	4328.451464800018	1
0	17178	4328.553775646532	2
0	17180	4329.600709064368	1
0	17185	4330.08874169831	0
0	17221	4340.922785736913	1
0	17222	4341.063885525641	0
0	17245	4346.887933646062	1
0	17248	4349.281247651272	0
0	17297	4361.584150672504	1
0	17299	4361.890145188204	2
0	17303	4363.599644331434	1
0	17309	4364.116921627827	2
0	17313	4364.978242775817	1
0	17320	4365.920263523492	2
0	17324	4366.699287061769	3
0	17325	4367.692234741144	2
0	17331	4368.294407258628	3
0	17333	4368.849638192127	2
0	17339	4369.973582186932	3
0	17340	4370.251952512027	2
0	17346	4371.558164617248	1
0	17352	4372.009333451513	0
0	17363	4376.934351758909	1
0	17365	4378.016394820904	2
0	17368	4379.344096885082	1
0	17373	4380.187148768301	0
0	17450	4404.204979700418	1
0	17453	4405.193216839029	2
0	17454	4406.532182784952	1
0	17461	4407.668894515946	2
0	17464	4408.08335216249	3
0	17465	4408.468940631577	2
0	17470	4410.396723288129	1
0	17477	4411.796416996168	0
0	17483	4411.871289401396	1
0	17484	4412.165482898191	0
0	17492	4413.636795122752	1
0	17493	4414.639884310744	0
0	17521	4425.758537329856	1
0	17522	4425.983073687525	0
0	17555	4432.317921600406	1
0	17556	4434.501034103598	0
0	17572	4440.113791027966	1
0	17573	4440.490149903663	0
0	17579	4441.14335955105	1
0	17580	4441.651156406756	0
0	17600	4443.591498765152	1
0	17601	4444.037377722165	0
0	17634	4452.630285195886	1
0	17637	4453.41821966242	0
0	17641	4454.202412806181	1
0	17649	4457.741484354771	0
0	17663	4459.988925360624	1
0	17665	4460.32805332504	2
0	17670	4462.122541761566	3
0	17671	4462.609299570395	2
0	17676	4463.54432695102	1
0	17680	4463.860085930177	2
0	17682	4464.144089215352	3
0	17684	4464.496036502774	4
0	17687	4465.665611481344	3
0	17691	4465.69681991024	4
0	17693	4466.135487898081	5
0	17696	4468.337068936812	4
0	17700	4468.617641124205	5
0	17707	4471.405447629462	4
0	17712	4471.472229132262	3
0	17718	4471.982393985028	4
0	17720	4472.798642916687	3
0	17726	4473.833201582888	4
0	17727	4474.626783714672	3
0	17733	4475.312136145729	4
0	17735	4475.543114400162	5
0	17736	4477.956709714359	4
0	17741	4478.432777621421	3
0	17746	4478.930081401203	2
0	17752	4479.585818017619	3
0	17757	4481.66243468366	2
0	17762	4481.823213309546	1
0	17767	4482.353668552889	0
0	17789	4484.9674852365	1
0	17798	4487.836517339216	2
0	17799	4488.394428209564	1
0	17808	4488.701555848619	0
0	17814	4490.59488768007	1
0	17816	4490.808484775544	2
0	17817	4491.402366589138	1
0	17823	4491.584218426501	0
0	17829	4491.774236567489	1
0	17830	4492.765829439731	0
0	17834	4493.968266641202	1
0	17837	4495.146203844542	0
0	17856	4496.899718093361	1
0	17859	4499.136184860396	0
0	17865	4499.562333462246	1
0	17868	4500.067464960939	2
0	17871	4500.844581147408	1
0	17878	4501.471101479335	2
0	17880	4501.498785091363	3
0	17881	4501.577824869757	2
0	17887	4501.977295405313	1
0	17892	4502.047404800828	0
0	17910	4506.195780915975	1
0	17914	4507.88558261201	0
0	17938	4512.172052366066	1
0	17939	4513.189052815759	0
0	17948	4514.914027127756	1
0	17952	4516.611036381684	2
0	17955	4520.459113784466	3
0	17956	4521.290481708173	2
0	17962	4521.319097729137	3
0	17964	4522.664747711688	2
0	17969	4522.726745381195	1
0	17975	4524.250085742106	0
0	18002	4535.001772831993	1
0	18008	4538.575089108777	0
0	18021	4541.523231293758	1
0	18022	4542.054830223279	0
0	18058	4548.133586445294	1
0	18061	4550.602735350358	0
0	18078	4553.048293730121	1
0	18080	4553.942976143621	2
0	18083	4554.670090892787	1
0	18089	4555.656337519581	0
0	18099	4558.256079437068	1
0	18103	4558.919090788984	2
0	18105	4559.268903371384	3
0	18106	4559.436025118343	2
0	18113	4561.014777558582	1
0	18119	4561.406109455374	0
0	18176	4581.962737196987	1
0	18179	4584.334760733901	0
0	18186	4585.54469736436	1
0	18187	4585.887307313659	0
0	18201	4589.411217687037	1
0	18207	4592.336829810546	2
0	18209	4592.361305795261	3
0	18210	4593.373638151604	2
0	18216	4593.772938362368	1
0	18221	4594.225975216329	0
0	18227	4594.259342843508	1
0	18228	4594.538995726856	0
0	18236	4597.559579041369	1
0	18237	4597.688801248777	0
0	18251	4597.865524213006	1
0	18254	4598.814814959405	0
0	18335	4638.1128293577	1
0	18337	4642.367972844915	2
0	18339	4642.915840131701	3
0	18342	4643.454173712856	2
0	18348	4643.807362514777	1
0	18354	4646.802589793743	0
0	18386	4657.057975036103	1
0	18388	4657.181099316235	0
0	18411	4665.774124144781	1
0	18414	4666.750485660081	0
0	18421	4666.984293491011	1
0	18424	4668.746338089078	0
0	18431	4670.009497107898	1
0	18435	4671.348515826641	2
0	18436	4671.879185077566	1
0	18442	4672.69069031438	2
0	18443	4672.884736434964	1
0	18449	4674.98479486614	0
0	18455	4679.431054442105	1
0	18456	4679.832845844537	0
0	18468	4684.280079983812	1
0	18471	4684.574417834526	0
0	18479	4687.551752559801	1
0	18482	4688.348587548461	0
0	18506	4692.016818961497	1
0	18508	4693.383452901447	0
0	18515	4694.604028295281	1
0	18516	4695.383052731014	0
0	18558	4712.4692470395	1
0	18560	4712.527281484126	2
0	18564	4713.218278938468	1
0	18570	4713.349232439054	2
0	18571	4713.539413874785	1
0	18579	4714.817667055585	2
0	18580	4716.360808479073	1
0	18586	4718.137934234795	0
0	18600	4719.040745999699	1
0	18601	4720.948820492726	0
0	18633	4726.687513831384	1
0	18638	4730.243535513691	0
0	18645	4730.654933019346	1
0	18646	4730.867923430251	0
0	18667	4735.810928226353	1
0	18669	4737.684306410437	0
0	18684	4739.623616583645	1
0	18685	4740.685831270866	0
0	18708	4746.603119640319	1
0	18710	4746.636434323523	2
0	18711	4747.145085216195	1
0	18717	4747.492303251504	0
0	18770	4760.936234418934	1
0	18774	4761.872197554667	2
0	18775	4762.121843006119	1
0	18780	4762.204329053222	0
0	18801	4764.280323427063	1
0	18805	4765.260518749699	2
0	18806	4765.818225421057	1
0	18811	4766.110511205665	0
0	18834	4769.139040034533	1
0	18837	4771.414683032134	0
0	18843	4771.693834302288	1
0	18844	4771.91096650187	0
0	18887	4781.392674253197	1
0	18891	4782.589343886214	0
0	18897	4782.912630854634	1
0	18899	4783.417003261469	2
0	18903	4784.620812961993	3
0	18904	4784.965419967285	2
0	18909	4786.133415873045	1
0	18915	4787.487094507369	0
0	18942	4791.54306750997	1
0	18944	4793.787831256881	0
0	18950	4793.833133527534	1
0	18951	4793.976812107688	0
0	18957	4794.28018776989	1
0	18958	4794.397416890979	0
0	18962	4795.432784231332	1
0	18964	4796.540979530151	2
0	18966	4796.798231427066	3
0	18968	4797.496662223247	4
0	18977	4799.60727063572	5
0	18978	4799.960448810846	4
0	18983	4800.841499285157	3
0	18987	4801.586880980345	4
0	18992	4804.107648084513	3
0	18998	4805.824308054522	2
0	19004	4806.687972826219	3
0	19005	4806.875890272883	2
0	19010	4807.883630573146	1
0	19019	4809.125086179686	0
0	19040	4810.482795489623	1
0	19045	4811.522888486618	0
0	19056	4815.967462430998	1
0	19060	4816.660047071905	2
0	19068	4821.130538967876	1
0	19073	4821.32954304129	0
0	19091	4824.533706428273	1
0	19092	4825.091137226542	0
0	19164	4843.241584348935	1
0	19165	4843.85038875795	0
0	19176	4847.125116631148	1
0	19178	4847.654248889083	2
0	19180	4850.851843173445	1
0	19185	4851.036357193644	0
0	19191	4851.444800641554	1
0	19192	4853.385516935747	0
0	19196	4853.41677347322	1
0	19203	4854.789183916405	0
0	19209	4855.842253165074	1
0	19212	4856.300316252914	0
0	19221	4858.746174727934	1
0	19223	4859.913547418022	2
0	19227	4861.09862267475	3
0	19228	4861.653504484454	2
0	19234	4862.313571065452	3
0	19239	4864.226963807463	2
0	19243	4864.549774611768	3
0	19245	4865.960071455613	4
0	19250	4867.474345230304	3
0	19255	4869.195211717971	2
0	19263	4871.440403223935	1
0	19273	4874.359551282044	2
0	19275	4874.952623301275	3
0	19276	4875.039190532548	2
0	19285	4877.590192610062	3
0	19286	4877.836382131246	2
0	19293	4878.440875480758	3
0	19294	4878.445199879949	2
0	19302	4880.051118021684	3
0	19305	4880.505753401232	4
0	19308	4882.391721900264	3
0	19313	4882.715690955751	2
0	19319	4884.093625167162	3
0	19321	4884.79486942971	4
0	19323	4886.692604001835	5
0	19325	4886.942224065918	6
0	19326	4887.702495640483	5
0	19330	4888.191132170004	6
0	19334	4888.391385892231	7
0	19339	4891.468242646192	6
0	19344	4891.686440102141	5
0	19351	4892.472795303854	4
0	19357	4893.527760075629	5
0	19359	4893.995177047753	6
0	19360	4895.855032772517	5
0	19366	4896.001383198325	6
0	19369	4897.610195844744	5
0	19374	4897.844858054742	4
0	19379	4900.37801528378	3
0	19384	4900.676367260369	2
0	19389	4902.02229316388	1
0	19397	4904.851237648488	2
0	19399	4905.50055132653	1
0	19404	4906.016273698531	0
0	19410	4906.3144326111	1
0	19411	4906.685019791314	0
0	19424	4910.093894943118	1
0	19427	4910.643589929614	0
0	19440	4911.707014819308	1
0	19442	4911.977654152374	2
0	19445	4913.227188772602	1
0	19450	4914.176915137419	0
0	19481	4921.199002492739	1
0	19483	4921.987018986005	0
0	19512	4928.580899804336	1
0	19515	4932.669592644297	0
0	19529	4936.036963533993	1
0	19532	4937.601836570563	0
0	19566	4942.675760841684	1
0	19567	4942.951433309494	0
0	19576	4943.096701809665	1
0	19578	4944.047098448798	2
0	19581	4945.265551217544	1
0	19591	4946.973991145315	0
0	19613	4948.44591003562	1
0	19614	4949.248348043596	0
0	19633	4952.133676546783	1
0	19635	4952.829777698543	0
0	19646	4954.891879752678	1
0	19648	4956.145478906524	0
0	19654	4956.314776109503	1
0	19655	4956.40272116553	0
0	19665	4957.990690634093	1
0	19666	4958.756412657258	0
0	19672	4958.947030859449	1
0	19674	4959.444031300312	2
0	19677	4961.209043400464	1
0	19683	4962.934925379461	0
0	19696	4966.893007916371	1
0	19697	4966.944623163148	0
0	19711	4967.842040370659	1
0	19712	4967.851137509136	0
0	19727	4970.606923438031	1
0	19729	4970.895624487319	2
0	19733	4971.78540314179	3
0	19735	4972.07602908564	4
0	19737	4972.483664632592	5
0	19740	4972.867063605412	4
0	19745	4972.894306797844	3
0	19751	4973.039359764655	4
0	19753	4973.264145417305	3
0	19759	4974.362920812914	2
0	19766	4976.105133824631	3
0	19770	4978.540423516583	4
0	19772	4978.693442995198	5
0	19774	4978.834564033721	6
0	19776	4979.016063898565	7
0	19777	4979.390501173856	6
0	19786	4983.205491799428	5
0	19791	4983.292083058277	4
0	19797	4984.023155861433	5
0	19800	4984.604178628853	6
0	19803	4987.280685063184	5
0	19811	4987.36741467186	6
0	19813	4987.716212667181	5
0	19819	4988.219303426889	4
0	19827	4989.224447186586	3
0	19832	4989.811134082521	2
0	19838	4990.640594261419	3
0	19840	4991.607751718427	2
0	19845	4991.952833807765	1
0	19851	4992.330717934842	2
0	19852	4992.674267591863	1
0	19856	4993.865037167604	2
0	19859	4994.355627995573	1
0	19865	4995.90691882066	0
0	19877	4998.294084585797	1
0	19880	5000.946461474629	0
0	19886	5002.020277976073	1
0	19887	5002.495867117046	0
0	19908	5005.719396366151	1
0	19911	5006.635187793678	0
0	19924	5011.778860717507	1
0	19926	5012.380495568085	2
0	19927	5012.84980675106	1
0	19932	5013.081662362825	0
0	19949	5014.97957651083	1
0	19957	5015.909371799814	0
0	19966	5018.396865240163	1
0	19969	5023.110732305692	0
0	19980	5026.814771487326	1
0	19982	5027.123731170437	0
0	19993	5030.170172115915	1
0	19994	5031.02688697157	0
0	20042	5043.775930924126	1
0	20043	5045.583589395931	0
0	20056	5049.152620831252	1
0	20058	5049.221976592593	2
0	20060	5050.698624834714	1
0	20071	5053.788053474881	0
0	20090	5058.645197752137	1
0	20094	5059.533917233887	2
0	20095	5060.737403256615	1
0	20100	5060.822897576437	0
0	20116	5064.575952295629	1
0	20117	5064.681166520356	0
0	20136	5068.121500866893	1
0	20139	5070.261690399711	0
0	20217	5099.13521638836	1
0	20218	5099.84602660867	0
0	20247	5109.89455764614	1
0	20248	5110.271659354599	0
0	20259	5112.947950357339	1
0	20267	5113.868472554929	2
0	20268	5114.127724757813	1
0	20273	5114.410309492014	0
0	20279	5114.555451180303	1
0	20280	5115.135876673302	0
0	20284	5115.162213458074	1
0	20286	5115.510950821321	2
0	20288	5115.60505055153	3
0	20290	5115.983227866311	4
0	20292	5116.208492184081	5
0	20294	5116.737758086427	6
0	20298	5117.676780252644	7
0	20299	5119.351778728343	6
0	20304	5121.290165511817	5
0	20312	5122.375986656167	4
0	20317	5122.64357108478	3
0	20323	5123.904912890433	2
0	20329	5124.10477787296	3
0	20330	5124.888691134505	2
0	20334	5126.400480029057	3
0	20336	5126.669455118748	4
0	20338	5128.338809223637	5
0	20341	5130.451521403113	4
0	20345	5131.490202332364	5
0	20349	5131.853941534053	6
0	20351	5132.504115352602	7
0	20358	5135.069170333421	6
0	20364	5137.049296378677	7
0	20374	5140.326892304677	8
0	20375	5140.345770406836	7
0	20380	5142.620404562732	6
0	20385	5144.441110412712	5
0	20391	5145.175410249659	6
0	20396	5146.69949487676	7
0	20398	5146.929227591352	8
0	20399	5148.011372725834	7
0	20404	5148.191176959304	6
0	20410	5151.705360331011	5
0	20418	5152.238666480465	4
0	20424	5152.369391520477	5
0	20427	5155.194521356584	4
0	20436	5155.978023085186	5
0	20437	5156.192917106694	4
0	20443	5157.104051784961	3
0	20448	5158.653679053804	2
0	20453	5159.481198706378	1
0	20457	5159.826500118196	2
0	20461	5160.713985909807	3
0	20462	5161.188765938583	2
0	20469	5165.878771174238	1
0	20474	5166.005914151734	0
0	20496	5168.33870809965	1
0	20498	5169.140143930689	0
0	20516	5174.799505312287	1
0	20518	5174.982244211687	2
0	20523	5175.4698026439	1
0	20528	5175.489507168336	0
0	20553	5181.298670609152	1
0	20556	5181.984514855058	0
0	20599	5194.646873518368	1
0	20600	5196.24271126161	0
0	20606	5196.878716268813	1
0	20609	5197.387563647961	0
0	20623	5201.053735581217	1
0	20624	5201.285789272111	0
0	20658	5209.445451149202	1
0	20668	5214.178414095275	2
0	20670	5215.119379023001	3
0	20673	5216.954654405891	2
0	20681	5218.130259998989	1
0	20687	5219.527322163543	0
0	20703	5220.959183024975	1
0	20709	5225.526401434681	0
0	20728	5231.1956309363	1
0	20729	5231.299597909238	0
0	20739	5232.426861376266	1
0	20741	5234.235051542049	2
0	20745	5235.323494557088	3
0	20747	5236.247991524817	4
0	20748	5236.654805422824	3
0	20753	5236.726814746492	2
0	20762	5238.162173869421	3
0	20766	5239.950147157518	4
0	20768	5241.418661753352	3
0	20773	5242.977306311024	2
0	20777	5245.813293354529	3
[...]
5	115790	28571.252398780565	2.255530772244
5	115795	28571.893315823353	1.075260208233
5	115801	28577.711645912098	6.716709679592
5	115816	28589.140567662866	1.661716542197
5	115839	28600.47240219658	2.079567821946
5	115844	28602.486085857715	4.071054913041
5	115849	28603.332504931656	3.569316180678
5	115864	28607.267886704413	1.171300135775
5	115879	28611.374881182946	0.646520172379
5	115886	28612.373422896077	0.005012544485
5	115894	28613.394216315398	0.105247195614
5	115901	28617.676668678718	1.934582893623
5	115910	28620.949734958206	0.901932517653
5	115917	28624.046131716444	0.150955122354
5	115937	28629.698841393876	1.766738459057
5	115965	28641.959528670004	5.910375267955
5	115970	28643.385511922849	4.533327085651
5	115994	28649.314251376245	0.810000364906
5	116001	28650.094538051401	1.193414586772
5	116006	28653.522302063523	3.83215938702
5	116032	28659.326589874761	2.806527784075
5	116046	28662.245969323171	3.579917681182
5	116052	28662.939729525453	3.323174701115
5	116057	28663.664755818429	3.797749363817
5	116065	28664.985020045122	3.114213573217
5	116085	28676.460473155919	11.847351774734
5	116090	28676.83746751904	10.967530872793
5	116095	28677.155513621926	10.475601946267
5	116102	28678.206275310427	11.058638780001
5	116111	28679.82385296477	10.926867850192
5	116118	28682.242183270196	9.402545104631
5	116124	28682.654027082935	6.734851927715
5	116131	28682.8633997038	5.224541167806
5	116139	28686.540423780072	7.078453883124
5	116144	28687.059796245424	4.238589142146
5	116155	28688.667786686018	5.301939945427
5	116162	28689.745734918619	2.655655364648
5	116169	28690.472654860316	1.847317878203
5	116200	28699.015907181505	3.192008051163
5	116208	28700.224220172279	2.260923222774
5	116213	28700.842882875573	0.751174490849
5	116232	28705.859203118533	4.786654793502
5	116238	28706.351053779206	3.548803885457
5	116244	28707.932064495375	3.359661288336
5	116260	28711.520614307129	2.71799160054
5	116265	28711.53522400662	0.853697613147
5	116299	28719.302445515916	1.295236199515
5	116310	28720.640912675896	0.30618452338
5	116346	28734.543862154729	10.397406829457
5	116352	28735.695370061139	11.421267913982
5	116357	28736.529980553913	3.910557094279
5	116363	28736.998993709513	3.01647972515
5	116390	28747.146312195161	2.25760159703
5	116400	28750.043724395406	4.654317721281
5	116406	28751.91273635074	5.308620704121
5	116412	28752.308531370481	2.662780654191
5	116419	28753.552912666166	3.885632665766
5	116424	28754.02151300807	0.514901125732
5	116461	28765.086052080596	9.496169141206
5	116469	28766.615891880937	10.860581119084
5	116475	28766.962930150871	6.060276774379
5	116480	28767.029912477934	5.67669992081
5	116486	28768.388909910198	6.143184522057
5	116496	28771.139534269038	8.717446225478
5	116507	28774.936947359613	10.639774856499
5	116515	28776.63547612071	11.322523903745
5	116523	28776.95466692526	7.855718859443
5	116529	28778.185139487119	8.217554256147
5	116534	28778.693261335219	6.840917000287
5	116541	28779.874459496252	6.782736571924
5	116551	28782.119450280338	6.094309768686
5	116559	28784.188940028374	7.456513110707
5	116566	28785.609931120995	5.319946621985
5	116572	28787.138167235884	5.754159296596
5	116577	28787.212061289738	4.868565351845
5	116601	28791.715160309203	1.749851790411
5	116606	28792.763013412699	1.819864088086
5	116624	28800.684482125102	7.682488670451
5	116630	28802.255472753542	5.552799277865
5	116651	28806.788337518372	2.045194289634
5	116656	28807.272032358027	2.290025217939
5	116662	28807.987997812011	2.893785337762
5	116701	28816.669111848982	0.051136683221
5	116711	28818.255739433762	0.149181487994
5	116723	28825.109488098809	5.019192469713
5	116727	28825.334486928536	1.530212495284
5	116746	28828.334553719828	1.473642106529
5	116767	28833.99442409812	1.798966898469
5	116810	28846.680653477845	2.255758899564
5	116815	28846.910880577841	2.251223660145
5	116824	28850.0215198991	3.947832994724
5	116831	28851.644856738595	2.730655341108
5	116846	28856.482693307516	4.273744191259
5	116861	28857.627411179627	1.07358885163
5	116872	28861.787754103376	4.970825678753
5	116879	28866.151614187411	8.29675427359
5	116888	28868.665607961346	9.420558171834
5	116899	28870.508061992658	9.201957952297
5	116906	28871.094337829066	8.67347905217
5	116916	28875.313219318311	8.941363187716
5	116924	28876.836544324382	7.984271964386
5	116929	28877.541904177303	7.561448144563
5	116940	28880.484880431571	8.401439647583
5	116945	28881.23659827152	4.946718047472
5	116950	28881.258722781674	2.662821780781
5	116957	28881.83754726887	3.055052817108
5	116966	28884.375042327489	2.899313587329
5	117000	28892.794305716781	3.082720492792
5	117006	28893.865553416966	2.692796086119
5	117028	28901.342947738615	3.820197310047
5	117069	28914.139563894351	2.093212107741
5	117074	28914.753283301541	1.452600205308
5	117097	28920.666489695951	3.450587173996
5	117108	28929.728782771723	2.32678202971
5	117112	28930.227648387081	1.352027232172
5	117131	28938.467942692863	2.017558780101
5	117140	28942.103145103857	3.697552134204
5	117147	28942.131818818632	0.551921847436
5	117151	28942.217960173529	0.10215875227
5	117182	28949.422509666542	2.758154154648
5	117187	28950.284744622913	2.892799733656
5	117202	28952.01147097808	1.646792140228
5	117207	28952.274366933875	1.316052141876
5	117230	28959.446223432492	6.265599870192
5	117235	28959.601050548001	5.070720651185
5	117243	28961.868900183745	5.893243072035
5	117252	28965.818921384385	8.228572630363
5	117263	28967.79607598554	7.001158713404
5	117272	28969.931990430259	7.983526316694
5	117277	28975.42482453031	9.682274927956
5	117282	28976.652156203384	10.467409611551
5	117287	28977.879442742851	10.694950681906
5	117298	28981.805932096954	12.773791120932
5	117303	28988.797862134126	7.123396093932
5	117324	28993.358992189484	1.840140277765
5	117333	28997.611234150199	4.649621012121
5	117342	29000.547310356523	6.429354319
5	117381	29010.672600220183	1.979518468547
5	117398	29014.722141358995	2.884952354243
5	117420	29018.746179433877	1.045996286816
5	117437	29024.581159100085	5.129874029035
5	117446	29026.223154592595	1.862022421571
5	117452	29026.590478086976	2.008674580304
5	117474	29029.619586143785	2.068240180927
5	117479	29029.947486721565	1.298880234197
5	117490	29032.534545658593	1.781840497211
5	117498	29034.175170927919	3.417221088521
5	117505	29034.76013467782	1.386051888398
5	117540	29045.346276620576	7.761249413346
5	117554	29046.943980313226	1.401297462281
5	117571	29054.831575933563	3.190681089482
5	117591	29058.174019264704	1.21359644844
5	117619	29066.737062465499	6.976905217065
5	117627	29067.183196203523	5.183822710617
5	117632	29067.269664407677	2.074833474058
5	117651	29070.421195226773	2.252577287821
5	117656	29070.705503282075	0.699754675728
5	117667	29075.057926682285	4.951170756497
5	117672	29077.293036105917	4.5859224247
5	117717	29093.061353073824	3.967290892056
5	117728	29099.342692937121	7.702092145821
5	117733	29099.782949427858	7.146230111472
5	117739	29100.277771655594	6.705658206423
5	117743	29100.559569797444	3.149655372139
5	117763	29109.776182393979	3.482376231098
5	117776	29115.628338598234	0.197771415284
5	117796	29121.646495920814	1.042248524892
5	117800	29122.155788296329	1.139791719729
5	117810	29127.326959086931	2.89838178224
5	117814	29128.037766456075	2.451511035325
5	117823	29129.992895107877	0.217852088088
5	117835	29131.370238388783	1.193219770166
5	117845	29136.600260381431	5.941939204985
5	117850	29137.399930798687	5.142940024382
5	117865	29140.566700945904	7.563043390234
5	117874	29143.532023845331	6.056268211558
5	117883	29145.263788785402	7.421060341757
5	117888	29145.539429032482	5.823038951573
5	117897	29146.98622716319	3.94912064895
5	117902	29148.159359451682	4.365012088789
5	117912	29152.668117654244	6.207806144301
5	117917	29152.710807557284	2.320231853034
5	117952	29164.078156088479	0.986953186823
5	117978	29173.9565785549	7.742475971865
5	117983	29174.271706307837	5.584093856628
5	117991	29174.9695514886	4.071203223392
5	117997	29177.299754503227	6.205542425092
5	118003	29179.205854317059	7.013133732138
5	118010	29179.786858226839	6.348920601905
5	118025	29181.476605160044	1.169645651362
5	118030	29181.761133223151	1.393450612069
5	118052	29185.163925255769	3.11815673183
5	118061	29188.342230965011	4.23120487441
5	118070	29189.325848041353	2.29873688673
5	118076	29189.695409128942	1.732755665449
5	118102	29194.967314086141	5.043647444891
5	118110	29195.663867070289	5.355783454177
5	118119	29200.190468979021	9.711852380766
5	118128	29203.382060479196	9.81975876766
5	118133	29204.786366244772	10.859224902981
5	118148	29208.759248231306	14.205568921698
5	118155	29210.756045239223	12.510767328937
5	118163	29211.865340186059	6.062902176554
5	118172	29213.229338298315	1.785366997307
5	118196	29218.144639686307	1.735135050286
5	118228	29228.755885426957	5.855463906204
5	118251	29233.205741596736	2.965410459607
5	118263	29234.271035587777	1.366760857178
5	118268	29234.816730728325	1.265902621335
5	118273	29235.104658986618	1.507807068608
5	118289	29237.261997662652	3.123332827724
5	118294	29237.889990855936	2.566126569124
5	118301	29240.06647371454	3.142343552574
5	118308	29243.348519500419	4.086720084048
5	118315	29246.185460075891	5.921974046555
5	118330	29247.822955601011	1.390496954461
5	118361	29252.79651305299	2.685197088417
5	118376	29257.478095218454	1.318751113231
5	118396	29261.101741044285	1.992331823697
5	118405	29262.6019364675	1.939557889919
5	118410	29263.659288420961	2.555002169293
5	118435	29268.434135995161	1.839097447318
5	118450	29270.804544244491	1.871000054911
5	118459	29271.257482120486	0.495904455506
5	118482	29283.426923068434	9.233745225921
5	118495	29284.742705821959	4.509501535649
5	118502	29285.313633968618	1.777321531742
5	118512	29287.763385857676	4.01229693697
5	118537	29295.408684074932	9.763463491432
5	118544	29296.443048016807	10.610099876495
5	118555	29302.474295511303	13.014310234179
5	118563	29306.283519662205	16.727310210286
5	118568	29306.688189744281	15.722112946312
5	118575	29308.67556692395	15.949405608943
5	118582	29310.257157842781	16.8107700427
5	118587	29310.787058264776	14.692582939901
5	118595	29312.713618848097	13.186127059326
5	118605	29315.828995241794	12.592417891576
5	118614	29319.636462410504	12.065273838712
5	118624	29320.982631644992	11.483502632491
5	118629	29321.579313783003	8.742553585611
5	118636	29321.903312818557	8.671168869443
5	118645	29327.724107652392	7.651912992969
5	118652	29329.11075274194	8.503317876403
5	118658	29330.794296318588	7.593603430612
5	118705	29343.102629897981	6.177606609217
5	118729	29348.043256004115	3.014333547853
5	118737	29349.271178150997	4.09743753514
5	118746	29351.094656798293	2.460300810341
5	118751	29351.156711902118	0.706438106576
5	118801	29361.393246912485	1.871934873764
5	118816	29364.865368434289	5.317503443831
5	118823	29365.32483868456	4.96329977105
5	118828	29365.549832789029	3.420365271703
5	118838	29366.510497141533	3.985162530965
5	118847	29369.539764289382	4.306375352741
5	118854	29370.442214560445	4.871941749631
5	118863	29372.73274428945	6.553705498045
5	118874	29373.970943655747	5.669632936512
5	118879	29374.080181305771	4.402632833749
5	118888	29374.426511184598	3.897376391344
5	118899	29375.558186064293	3.707763861991
5	118912	29379.231925242381	5.338825311876
5	118917	29379.64444999858	5.713923444162
5	118922	29379.738871849045	5.34760025238
5	118931	29381.280238072925	6.561047070738
5	118937	29381.530790732075	6.558992047481
5	118943	29382.732059179814	7.544787992465
5	118949	29382.89957710281	6.301850714839
5	118954	29383.479562709921	5.154977391564
5	118961	29384.980365368149	4.796527771349
5	118978	29388.891299356471	2.224702362224
5	119019	29400.032061482023	1.609210208282
5	119033	29404.835040628297	4.035520213533
5	119048	29409.020349608655	2.423340419225
5	119066	29410.677504774516	1.339039404246
5	119081	29418.198679288699	8.163364577715
5	119088	29419.258161509981	7.341326644928
5	119095	29420.325807033918	5.447903684087
5	119100	29421.006461221837	3.160844537777
5	119105	29421.733567547392	2.838625906334
5	119128	29426.275765218428	2.793952130206
5	119135	29428.925506703593	4.330640879293
5	119142	29431.395645661919	5.596873393886
5	119156	29437.438824204324	7.53846091565
5	119163	29437.712844207726	2.219035540973
5	119181	29441.810523481609	2.159279188386
5	119193	29446.281350149758	1.339676296183
5	119213	29452.954818215383	4.150842079703
5	119219	29454.090132197346	3.668926679766
5	119226	29454.789470744409	3.710912379688
5	119262	29469.743553574506	7.079432989411
5	119268	29471.3473187567	5.789994455656
5	119273	29471.591317807096	5.382424895583
5	119278	29472.015134576759	2.46325770613
5	119294	29475.812984946665	2.652937231648
5	119299	29475.935502772786	0.973567721112
5	119320	29483.58121112159	2.549133597159
5	119340	29487.564919753181	1.183037781158
5	119357	29493.032236562523	3.005265697988
5	119386	29497.523422643735	2.471593891485
5	119393	29498.967478074643	3.322960484014
5	119444	29511.41022645319	8.692033709004
5	119451	29512.444788159569	7.901524661538
5	119457	29513.840263205986	8.687025838039
5	119465	29515.638570264376	10.165349417888
5	119483	29520.497398066091	14.644333404985
5	119488	29522.387289079633	12.65137017052
5	119497	29524.423864734935	12.58455089337
5	119510	29529.423290767103	12.472702400708
5	119516	29530.540411446453	12.652348582029
5	119522	29531.835288351919	13.69923855222
5	119528	29532.261250987069	13.852831465397
5	119533	29532.301463326216	13.420514325016
5	119538	29533.955786937153	10.428240442708
5	119547	29537.353010052338	13.657425436021
5	119552	29537.593832155541	9.883538689509
5	119558	29540.882857560347	11.92034290313
5	119597	29555.157438886045	8.400851030779
5	119602	29555.914086421475	3.246896566864
5	119614	29559.128223079137	1.75324679315
5	119632	29562.135605240207	1.559143963444
5	119649	29568.268936545309	4.980181164789
5	119658	29571.478736075001	6.721282328867
5	119663	29571.821193382517	2.185335722738
5	119681	29576.667368173156	4.30784231233
5	119686	29577.100830657321	2.123325778564
5	119703	29582.378914817218	5.971004313525
5	119709	29583.248235424347	4.218531859095
5	119716	29583.572634430899	3.12881470816
5	119737	29588.839259800333	4.187011999972
5	119742	29588.940093273754	0.135977236467
5	119780	29597.900967043813	1.943423522321
5	119797	29601.696900913342	0.95664448563
5	119817	29605.597034149346	1.174432581679
5	119835	29608.285241336804	0.999666420579
5	119882	29624.030158950367	6.016688995707
5	119887	29627.498490023428	9.347537732412
5	119892	29628.715521023122	9.583834978538
5	119914	29632.850417819	12.913417900338
5	119919	29632.958151533209	11.384516183933
5	119926	29634.514705974753	5.304359750213
5	119933	29635.541446878557	5.955296084481
5	119948	29641.444214448031	11.262296291049
5	119953	29641.524060403263	10.188390357654
5	119958	29642.009535044252	7.548181218188
5	119966	29642.966938350996	4.39424265416
5	119971	29643.410209859419	3.573138074946
5	119976	29645.36102552104	2.567765056566
5	120001	29651.500062713987	3.915546039748
5	120006	29651.581068594579	2.922183979218
5	120018	29653.982351527956	4.921739387943
5	120023	29654.117162508825	1.454471962216
5	120028	29655.58934720276	2.790231912617
5	120047	29661.295720986316	2.9772904689
5	120053	29662.932853510943	4.566920121457
5	120061	29663.728777105757	3.869443714147
5	120068	29664.565140989431	0.903736335955
5	120103	29674.339107843348	2.52391788377
5	120113	29675.905321603944	3.152205338248
5	120132	29680.989755277752	4.348551108673
5	120140	29682.302741860653	5.239297930019
5	120148	29684.781668282681	4.707752369179
5	120153	29684.912017104506	3.392670239566
5	120160	29685.904123967701	1.423175516957
5	120170	29688.383016726139	3.373354213652
5	120178	29689.176710867061	1.103906388319
5	120183	29689.219521891667	0.711316380351
5	120211	29695.992125997969	5.418470171749
5	120216	29696.052153552522	5.174791609489
5	120236	29702.705167605954	4.918243549585
5	120242	29703.336320242652	4.226457822545
5	120263	29706.547541623267	2.897010496721
5	120286	29712.50821953006	4.968815970353
5	120302	29714.082784896423	1.380668223988
5	120311	29716.16424355978	2.438125481818
5	120325	29720.222806997786	3.723506152682
5	120370	29735.865955151951	4.372542937705
5	120375	29736.074649018377	1.61062959012
5	120381	29736.337993775974	0.870885891028
5	120401	29738.7816460548	1.269958555099
5	120421	29743.240332056673	1.275682691485
5	120455	29755.277076728311	0.917202150562
5	120470	29757.211195839658	1.805995546499
5	120476	29758.042607334123	2.051326753017
5	120496	29763.808201841437	2.15533494055
5	120503	29765.225023552087	2.453018761221
5	120518	29767.503554501201	1.939912771195
5	120523	29767.548814215545	0.502769654494
5	120567	29777.856064785751	3.787530802359
5	120581	29779.123822337561	3.205751893165
5	120588	29780.42986888014	1.891743306129
5	120618	29784.183818978823	1.455301384504
5	120641	29789.831330683013	4.945700060603
5	120650	29793.161330950462	8.043810676327
5	120655	29797.670139200393	11.864754293267
5	120665	29799.605113402169	12.487077077517
5	120671	29800.737392928221	12.39156250577
5	120684	29801.627475066454	10.781535604767
5	120689	29801.776638191434	3.041558308202
5	120694	29802.000398779066	2.710008143023
5	120699	29803.662664397233	2.688564273817
5	120720	29809.759266140073	8.748813544093
5	120726	29809.863916120238	5.428867009096
5	120732	29810.283141863482	3.427996652989
5	120740	29812.387627826723	5.369849965678
5	120745	29812.399855201629	3.394162502878
5	120750	29812.508515454917	0.921476369135
5	120774	29815.006729577822	0.070027490385
5	120818	29822.491848536848	1.858988941322
5	120827	29825.169084323979	3.104651902565
5	120842	29826.488448094695	0.554386669577
5	120868	29832.612040047782	1.51805718621
5	120879	29837.904539867933	5.6583431712
5	120886	29841.628456296114	4.110789946359
5	120893	29842.624902728724	4.759574015138
5	120907	29844.624785392674	1.683154205394
5	120913	29845.726393112567	2.585108940079
5	120933	29851.44696317088	1.664601230416
5	120950	29853.436180022207	1.34813128296
5	120956	29854.303353963028	2.026152781577
5	120961	29854.499142141122	1.13931425564
5	120978	29858.36213376405	0.628949467709
5	121001	29864.754023724126	2.765724834417
5	121025	29869.467914543495	0.114724795443
5	121041	29875.983055636437	0.829910127511
5	121049	29877.634312639345	2.471295839765
5	121072	29884.397196481132	2.717500342374
5	121091	29888.073041546993	1.898995283979
5	121112	29893.664812310214	1.209790728031
5	121117	29894.551255326438	2.051459509146
5	121128	29895.84222749369	1.245125149523
5	121136	29897.057752274629	0.801381310161
5	121151	29901.040614633169	3.164706666192
5	121156	29901.664792545852	3.49544654033
5	121168	29902.874479484873	0.096881748272
5	121183	29908.865102361394	1.075857266243
5	121192	29915.771858216224	1.457927504396
5	121206	29924.703100291954	0.248682496381
5	121216	29927.548389948126	0.915817661873
5	121228	29930.78151245493	0.733415716308
5	121251	29934.897677719047	0.82117641809
5	121259	29936.842614172421	2.080758166442
5	121264	29938.684369863495	3.824391412958
5	121271	29939.384055962582	0.434113258132
5	121279	29942.212993539539	0.604059411468
5	121287	29942.893500640228	0.19233427131
5	121309	29949.533433244094	2.482507179069
5	121314	29950.208867491097	1.060747340171
5	121351	29958.441095828492	3.843193884488
5	121356	29958.760784166698	3.519727519418
5	121386	29968.342876562627	3.285465554609
5	121403	29969.999094660099	0.716427941541
5	121414	29972.132353181859	1.508008898979
5	121419	29973.05807312641	1.873767170177
5	121430	29975.53546079426	1.428986556587
5	121443	29977.138965327971	2.219364220145
5	121454	29978.758004056111	2.057482972794
5	121459	29979.960728543702	2.282046475926
5	121478	29986.29442514652	4.446552650893
5	121487	29991.762843720084	9.260389975549
5	121492	29991.887663464564	8.402196243936
5	121502	29992.618644833873	1.270260529455
5	121510	29993.512322354913	1.195119801595
5	121517	29994.319750677999	1.951850268738
5	121522	29995.569618231306	2.537279342582

