version 2
run Second-n2-5-20191016-17:03:25-15212
attr configname Second-n2
attr datetime 20191016-17:03:25
attr experiment Second-n2
attr inifile omnetpp.ini
attr iterationvars ""
attr iterationvarsf ""
attr measurement ""
attr network org.omnetpp.queueing.Pizza
attr processid 15212
attr repetition 5
attr replication ""
attr resultdir results
attr runnumber 5
attr seedset 5
param **.PS.maxInventoriedPS 2
param **.U1.interArrivalTime exponential(3s)
param **.U2.interArrivalTime exponential(5s)
param **.PS.serviceTimeForInventoryU1 exponential(1.0s)
param **.PS.serviceTimeForInventoryU2 exponential(1.2s)
param **.PS.serviceTimeDirectU1 exponential(1.4s)
param **.PS.serviceTimeDirectU2 exponential(1.4s)
param **.PS.probabilityProducing 0.7
param **.CS.serviceTimeU1 exponential(1.1s)
param **.CS.serviceTimeU2 exponential(1.4s)

vector 0 Pizza.EntryQueueU1 queueLength:vector ETV
attr interpolationmode sample-hold
attr title "queue length, vector"
vector 1 Pizza.CS queueLength:vector ETV
attr interpolationmode sample-hold
attr title "queue length, vector"
vector 2 Pizza.EntryQueueU2 queueLength:vector ETV
attr interpolationmode sample-hold
attr title "queue length, vector"
vector 3 Pizza.sink lifeTime:vector ETV
attr interpolationmode none
attr title "lifetime of arrived jobs, vector"
attr unit s
vector 4 Pizza.sink lifeTimeU2:vector ETV
attr interpolationmode none
attr title "lifetime of arrived jobs, vector"
attr unit s
vector 5 Pizza.sink lifeTimeU1:vector ETV
attr interpolationmode none
attr title "lifetime of arrived jobs, vector"
attr unit s
0	0	0	0
0	5	0.753059933076	1
0	7	1.447793824209	2
0	11	2.804223168235	3
0	13	3.086565267221	4
0	14	3.713850244484	3
0	20	5.225158783124	2
0	24	5.92483528698	3
0	26	6.548570327485	4
0	32	11.503754629997	5
0	35	12.097883854806	4
0	40	12.468465603316	3
0	45	13.056406209051	2
0	50	14.363753905328	1
0	54	15.527032728862	2
0	57	15.917614004192	1
0	65	16.259902939981	0
0	76	17.559657457948	1
0	77	17.612700222004	0
0	104	27.2333374427	1
0	110	30.421366248274	0
0	139	39.960007026865	1
0	140	40.832682346651	0
0	162	42.774869086631	1
0	164	43.741044129546	2
0	166	46.738154565465	3
0	170	47.506659751906	4
0	173	48.411529815708	3
0	178	48.807022703689	2
0	184	48.927608809685	3
0	186	51.488345613051	2
0	192	52.234066581634	1
0	201	52.926604946949	2
0	204	53.983435261695	1
0	211	54.291253801857	2
0	213	55.593287107787	3
0	214	55.727124561514	2
0	219	56.475194144234	1
0	225	56.74528425387	2
0	229	58.910100764718	1
0	235	60.744949389417	0
0	253	65.150686878444	1
0	255	66.544004873956	2
0	256	66.684157593285	1
0	262	67.040975653345	2
0	265	67.415991766187	3
0	267	68.753376266279	4
0	268	68.844581161743	3
0	273	70.573097033463	2
0	279	70.705588506229	3
0	281	71.223954224142	2
0	287	72.159040655129	1
0	294	73.710355233683	0
0	305	81.300995800051	1
0	308	82.047261208243	0
0	317	83.975327436484	1
0	318	85.188948623916	0
0	324	85.546481218216	1
0	326	86.749048114556	2
0	328	87.210657973879	3
0	329	87.312796701288	2
0	333	87.469746216343	3
0	337	89.713935052025	4
0	339	90.694675365287	3
0	345	92.443041339727	2
0	352	94.509059156278	1
0	356	96.418274098192	2
0	359	96.99759235897	1
0	366	98.791691320163	0
0	372	99.142728481817	1
0	373	99.288811748867	0
0	394	102.111803932706	1
0	398	102.934711705275	0
0	404	102.943445785151	1
0	405	103.173787023393	0
0	420	108.087862033106	1
0	421	108.449022472243	0
0	458	115.316563151367	1
0	459	115.900590229477	0
0	491	125.7505591255	1
0	493	126.097381010117	2
0	494	126.200106290695	1
0	499	128.512591839737	0
0	547	141.20708871104	1
0	548	142.614641653298	0
0	587	149.84434270571	1
0	588	150.258976534038	0
0	595	150.38762022274	1
0	596	150.833014108269	0
0	643	159.381286747223	1
0	644	161.984691691049	0
0	676	170.554533576349	1
0	678	171.081640932407	2
0	681	172.845317083701	1
0	686	173.302162112306	0
0	702	175.834263571155	1
0	705	176.574113022839	0
0	726	180.112205083708	1
0	732	183.900328459923	0
0	744	185.63901618019	1
0	745	185.775794351011	0
0	754	189.3938771788	1
0	756	191.237483452829	2
0	759	192.056500077337	1
0	765	193.16277840772	0
0	785	196.947125356668	1
0	788	199.911247134119	2
0	789	201.224270420671	1
0	794	201.928419177322	0
0	834	207.948609386525	1
0	835	208.224924364807	0
0	857	209.953695154464	1
0	858	210.514305186838	0
0	950	245.894743723873	1
0	955	248.135320078981	2
0	956	248.973091428178	1
0	961	249.074708621469	0
0	987	256.488919922925	1
0	991	258.055251990049	2
0	993	258.356697934374	3
0	997	259.805408114746	2
0	1003	260.345253803593	3
0	1004	260.538038030047	2
0	1012	261.09168429731	3
0	1013	262.112991523127	2
0	1018	263.254203158722	1
0	1023	264.834746203707	0
0	1058	276.607224585283	1
0	1059	278.450653659727	0
0	1070	279.382582920969	1
0	1073	280.641920259775	2
0	1081	285.074465867668	1
0	1086	285.465211108112	0
0	1106	289.351448497486	1
0	1109	293.536897642926	0
0	1123	296.130012781439	1
0	1125	296.155302426047	2
0	1126	296.196856142901	1
0	1132	298.799733550888	0
0	1141	300.397305124841	1
0	1146	302.246549961301	0
0	1159	305.354075789279	1
0	1160	306.160803990336	0
0	1169	307.112365563924	1
0	1171	307.702257346489	2
0	1176	310.871075606474	1
0	1181	311.793913879336	0
0	1187	312.594412898644	1
0	1190	313.641342065702	0
0	1196	314.680188857888	1
0	1201	315.685328020934	0
0	1228	321.232008699992	1
0	1229	321.45675174734	0
0	1236	322.057753143193	1
0	1237	322.064517072565	0
0	1257	328.301160976734	1
0	1259	329.35243495466	2
0	1262	330.016456648677	1
0	1268	330.138957829802	0
0	1279	330.743437527049	1
0	1282	331.40462666104	0
0	1328	350.650277981649	1
0	1332	354.556908051254	2
0	1335	355.231146381924	1
0	1341	355.485969505916	2
0	1342	356.313051897669	1
0	1347	356.502415676628	0
0	1355	357.351369605354	1
0	1356	358.4126819865	0
0	1363	358.917116900405	1
0	1364	359.608145813527	0
0	1403	369.830961813658	1
0	1405	369.843051496707	2
0	1406	371.642229318692	1
0	1412	371.906181646638	2
0	1413	372.195175796453	1
0	1418	373.016458101211	0
0	1424	376.044563125764	1
0	1427	376.489210119567	0
0	1450	380.808018980855	1
0	1452	380.871831484867	0
0	1458	383.782397894198	1
0	1459	384.133044818423	0
0	1465	384.237968293242	1
0	1468	386.247184269648	2
0	1471	386.762207632471	1
0	1477	386.948218225479	2
0	1479	387.726802522743	1
0	1485	388.629319717951	0
0	1489	391.330288636989	1
0	1494	393.589715057454	2
0	1495	393.750811642872	1
0	1500	395.295929336764	0
0	1547	411.823160236201	1
0	1550	413.608095401381	0
0	1584	425.169131712533	1
0	1595	430.560252682681	0
0	1601	430.914344968887	1
0	1603	431.959739809384	0
0	1612	434.697481616974	1
0	1614	436.741998363293	0
0	1633	441.72555304003	1
0	1637	442.07048802448	2
0	1638	442.111997298613	1
0	1643	442.206254882551	0
0	1649	442.357604970118	1
0	1651	442.826350588753	0
0	1655	443.088982594979	1
0	1658	443.913715950553	0
0	1664	445.496800367317	1
0	1665	445.833994342527	0
0	1669	446.645720338812	1
0	1671	448.012702004265	2
0	1679	451.004012549633	1
0	1684	451.105069869962	0
0	1688	452.495037693182	1
0	1692	453.407105102983	2
0	1696	455.771617509361	1
0	1702	456.542978876858	2
0	1703	457.090752674639	1
0	1709	457.451255040408	2
0	1710	457.922956522201	1
0	1716	459.111045662934	2
0	1717	461.670077946827	1
0	1722	465.50822739511	0
0	1726	465.705895258793	1
0	1733	467.675291111412	0
0	1746	470.304284185064	1
0	1747	470.860348635856	0
0	1780	479.525431726172	1
0	1781	479.759178135446	0
0	1790	480.336964530296	1
0	1794	481.463536595519	0
0	1806	482.144957753267	1
0	1813	485.528202435745	2
0	1814	486.028596758949	1
0	1819	486.188494998002	0
0	1845	491.405154607168	1
0	1853	494.735308724336	2
0	1854	495.999591063455	1
0	1859	496.013437389021	0
0	1896	502.892559328079	1
0	1898	503.330053486538	0
0	1905	503.569333747312	1
0	1907	503.953515667829	0
0	1913	504.00696103441	1
0	1918	506.29622817089	2
0	1920	506.309678563479	3
0	1922	506.328724786285	4
0	1925	506.602630289912	3
0	1931	507.195251735442	4
0	1933	507.502104871366	5
0	1934	508.096404268647	4
0	1939	508.378553534073	3
0	1945	510.610233298853	4
0	1946	510.656791373855	3
0	1952	511.552941511514	4
0	1954	513.068260856641	5
0	1959	517.5210344455	4
0	1966	518.373207681674	5
0	1970	519.936980090383	4
0	1975	520.113181254582	3
0	1980	520.152706992769	2
0	1986	520.653559740121	3
0	1991	522.83509584456	4
0	1992	522.943000508185	3
0	1996	522.980851540916	4
0	1999	523.225935033127	3
0	2005	524.414319660253	4
0	2008	524.906390001242	3
0	2012	525.01543461397	4
0	2016	526.456968177115	5
0	2022	528.501779551659	4
0	2028	528.783563438382	5
0	2029	529.212052848891	4
0	2036	530.918731738356	3
0	2044	532.868221565688	4
0	2045	533.691206062792	3
0	2051	534.053753430653	4
0	2055	536.808685114476	5
0	2056	537.39770260243	4
0	2062	538.365981163946	3
0	2067	538.999848196862	2
0	2073	540.264449347784	1
0	2079	542.843761348091	0
0	2085	543.646683783275	1
0	2086	544.353141840893	0
0	2090	544.886236699081	1
0	2092	544.977406516668	2
0	2098	546.633942525239	3
0	2100	547.158450805872	4
0	2101	547.967403399337	3
0	2106	548.074142456338	2
0	2115	549.717304541059	1
0	2120	549.874385308317	0
0	2153	557.333589619671	1
0	2157	558.280541328655	2
0	2159	559.104454460258	1
0	2164	561.480039825111	0
0	2207	569.489737377465	1
0	2208	569.648141842204	0
0	2217	570.555186050093	1
0	2220	571.259679934338	0
0	2241	573.879636599656	1
0	2245	574.659843955378	0
0	2271	579.650173297535	1
0	2272	580.008430252845	0
0	2278	580.21987516607	1
0	2280	580.376350094744	2
0	2285	581.656859467782	1
0	2290	581.73108512378	0
0	2296	581.964483773919	1
0	2299	582.812001093845	0
0	2306	584.217157438457	1
0	2307	584.282513339562	0
0	2322	587.355722624016	1
0	2323	587.587239953731	0
0	2333	588.311760935723	1
0	2340	591.103224459601	0
0	2346	591.235947606484	1
0	2350	592.478452881269	2
0	2352	592.481973819756	3
0	2355	596.028398354515	2
0	2360	596.201960349456	1
0	2365	596.529114978514	0
0	2372	598.057918509086	1
0	2374	598.209661975909	0
0	2393	600.303904663408	1
0	2395	602.052855959544	2
0	2402	605.242986729101	1
0	2408	605.688074304866	2
0	2409	605.891409477817	1
0	2413	606.421885669896	2
0	2416	607.174718355538	1
0	2421	607.829986759446	0
0	2457	617.269622150869	1
0	2459	617.285699918821	2
0	2460	617.998287225007	1
0	2467	618.839950611381	0
0	2473	618.869315488085	1
0	2474	618.895777165695	0
0	2491	622.033112389343	1
0	2493	622.606048759895	2
0	2497	625.474230428842	1
0	2502	626.082915878772	0
0	2531	633.891791930295	1
0	2535	635.474765951735	2
0	2538	636.866337841885	1
0	2543	637.041324398996	0
0	2562	641.937104060817	1
0	2563	643.65863266423	0
0	2578	646.073225376628	1
0	2583	651.156922658163	0
0	2592	652.011057458108	1
0	2595	653.954118736492	0
0	2614	656.598948786813	1
0	2616	659.144440811199	0
0	2622	659.852454947298	1
0	2623	660.188797801276	0
0	2657	674.875008781656	1
0	2659	675.11888095402	2
0	2661	675.600486404594	3
0	2665	676.140258402057	2
0	2673	677.339786529514	3
0	2677	678.507541547265	4
0	2679	680.066374038935	5
0	2680	680.67778054824	4
0	2687	682.727046927199	5
0	2688	683.94612076286	4
0	2694	684.536494356373	5
0	2696	684.82595969791	4
0	2702	685.75048865829	5
0	2703	685.751233448468	4
0	2708	686.527923752226	3
0	2713	688.005352042996	2
0	2720	689.259459555888	1
0	2729	690.467798537128	2
0	2731	691.973033401903	1
0	2736	692.50959973257	0
0	2742	692.541329687877	1
0	2743	692.708526514059	0
0	2771	698.674070219057	1
0	2774	701.811003130343	0
0	2810	709.685871351352	1
0	2814	709.941056994892	2
0	2817	711.811057041814	1
0	2823	712.023033522283	2
0	2824	712.780858262631	1
0	2829	713.565736393562	0
0	2833	713.843967050974	1
0	2837	714.054193976164	2
0	2840	716.023122711979	1
0	2847	716.769106585766	0
0	2876	726.435666341115	1
0	2878	727.937995881914	0
0	2891	729.408967217045	1
0	2893	729.42958617054	2
0	2895	730.073041662059	1
0	2901	730.859572610674	2
0	2903	731.040128247627	3
0	2906	731.895698191592	2
0	2911	731.962623198027	1
0	2918	732.43192831644	2
0	2923	733.479537170669	1
0	2928	733.62860727626	0
0	2934	734.531065070717	1
0	2936	735.064132758628	2
0	2939	735.803652978303	1
0	2945	737.974928922959	2
0	2948	739.380878087129	1
0	2955	742.576236532946	0
0	2959	742.963483206305	1
0	2964	744.709318070919	0
0	2970	744.990728788777	1
0	2973	745.914682321665	0
0	2979	746.055269996704	1
0	2980	746.083298528368	0
0	2986	750.745697979552	1
0	2987	751.724161279941	0
0	3008	753.842569572722	1
0	3009	753.891576904682	0
0	3020	757.015436251408	1
0	3029	762.156049337441	2
0	3030	762.283492909955	1
0	3039	763.967428692252	0
0	3045	765.311087044683	1
0	3047	765.995225929188	2
0	3050	766.426310511927	3
0	3054	766.924012841102	4
0	3055	766.941107829888	3
0	3061	770.558435245837	2
0	3067	770.621207002641	3
0	3070	774.424227798813	4
0	3071	774.778683663887	3
0	3077	774.885668114478	4
0	3078	776.05254772321	3
0	3084	776.087220597935	4
0	3085	776.242824522373	3
0	3089	777.382501476055	4
0	3092	779.441398788541	3
0	3100	781.427835066969	2
0	3106	781.822690799862	1
0	3110	782.614319976881	2
0	3113	783.260069828564	1
0	3120	783.922517160852	2
0	3122	784.227512088165	3
0	3123	784.34040592566	2
0	3129	784.577832880276	3
0	3135	786.076171098952	2
0	3140	786.28169280345	1
0	3145	786.375203872288	0
0	3149	786.689998807087	1
0	3152	787.495174004528	0
0	3159	788.275022638469	1
0	3162	789.383156635556	2
0	3163	790.315998171024	1
0	3168	790.903789279982	0
0	3195	794.937586176864	1
0	3198	800.067404780565	0
0	3209	800.773892459776	1
0	3211	801.541910636123	0
0	3236	803.491273757443	1
0	3237	804.424840456411	0
0	3249	807.129553591286	1
0	3250	807.490172082748	0
0	3282	818.977152664547	1
0	3285	820.32285521175	0
0	3291	822.965180147619	1
0	3293	823.697050236887	2
0	3295	824.576209340287	3
0	3296	825.39221884087	2
0	3300	827.381626635104	3
0	3303	827.884581984936	2
0	3307	828.11353123991	3
0	3311	830.798119243863	2
0	3317	831.08239598055	3
0	3318	831.142065442008	2
0	3327	832.889738084322	1
0	3332	834.67648274045	0
0	3350	836.428084136034	1
0	3352	836.627012091055	2
0	3353	836.69533382729	1
0	3360	837.82038498809	2
0	3361	838.65521924934	1
0	3368	843.035379648489	2
0	3370	843.676173854667	3
0	3371	844.404930807051	2
0	3377	844.742371593979	1
0	3382	845.440048049196	0
0	3388	846.895223708707	1
0	3391	847.473467755282	0
0	3395	847.871074698946	1
0	3398	849.580946618833	0
0	3402	850.278125274896	1
0	3404	850.780986616401	2
0	3406	852.427701884706	3
0	3408	852.615835191198	4
0	3410	852.968630745665	5
0	3413	853.618268094944	4
0	3421	857.324469410342	3
0	3427	858.044743120199	2
0	3432	858.475531507548	1
0	3437	858.553824247272	0
0	3450	860.721806604987	1
0	3452	861.191302817368	0
0	3469	864.009948280778	1
0	3472	864.974174724931	0
0	3490	870.363261728157	1
0	3494	870.696408319384	2
0	3495	873.574103342995	1
0	3500	874.283608569518	0
0	3506	876.425761967775	1
0	3507	876.632063999192	0
0	3515	879.881576358636	1
0	3518	882.729601354699	2
0	3521	884.578685666864	3
0	3523	885.19446490638	4
0	3526	886.680045855698	3
0	3532	888.888344540248	2
0	3537	889.087394908003	1
0	3544	890.472930623224	2
0	3546	891.134457574435	3
0	3547	891.645779522247	2
0	3554	893.102367655378	3
0	3556	893.664646774262	4
0	3558	893.747248398236	5
0	3560	894.845558758873	6
0	3561	895.47601344822	5
0	3566	895.734941675565	4
0	3570	895.918778720034	5
0	3575	896.742836408035	4
0	3579	897.806932931923	5
0	3582	899.037594845627	4
0	3588	899.895553911526	5
0	3592	901.618998688241	6
0	3598	903.937951730504	5
0	3605	904.888399607916	4
0	3612	909.080366738096	3
0	3620	911.601942810222	2
0	3625	911.666109790839	1
0	3630	913.361771823529	0
0	3638	914.860242410852	1
0	3642	915.478357042006	0
0	3648	915.588471559684	1
0	3651	917.099804794126	0
0	3657	917.119766961528	1
0	3658	917.880745424136	0
0	3670	921.336835906909	1
0	3672	923.770174418736	0
0	3679	926.452085291179	1
0	3682	927.269398604462	0
0	3688	927.596864745038	1
0	3690	927.971395925473	0
0	3719	935.988537552644	1
0	3722	938.037593250578	0
0	3735	938.421626638781	1
0	3736	939.139337153514	0
0	3745	941.962125942371	1
0	3749	943.038927568956	2
0	3750	943.12783751286	1
0	3758	943.979549174877	0
0	3766	946.551282926293	1
0	3767	946.671487663457	0
0	3792	952.012499633441	1
0	3793	952.047499280873	0
0	3805	955.87867293812	1
0	3809	958.366148641533	0
0	3826	960.68385022435	1
0	3828	960.951645516021	2
0	3829	961.010213469072	1
0	3835	961.972206409709	0
0	3857	964.978687442092	1
0	3860	966.138830228461	0
0	3866	966.167344462551	1
0	3869	966.993594597872	2
0	3870	969.003861290591	1
0	3875	969.059545454442	0
0	3892	976.084959962421	1
0	3894	976.370253084329	2
0	3896	978.564942972183	3
0	3898	979.977094083833	4
0	3899	980.230469806344	3
0	3904	980.502038759777	2
0	3910	980.559597788474	3
0	3911	980.616648313845	2
0	3919	982.183582896186	3
0	3921	982.632941560124	4
0	3923	982.842999606535	5
0	3926	983.88956043909	4
0	3931	984.716948564177	3
0	3937	987.896954985168	4
0	3943	989.757632389024	5
0	3944	989.790884648618	4
0	3950	990.90024629094	3
0	3955	992.103993960205	2
0	3961	993.316661992984	1
0	3966	994.27688831795	0
0	3974	1000.442912832462	1
0	3979	1004.132404991985	0
0	3990	1006.534799227208	1
0	3995	1007.587839342799	2
0	3996	1009.702995374602	1
0	4002	1012.862197569881	0
0	4008	1013.304512015409	1
0	4011	1018.185811074873	0
0	4040	1025.959215100511	1
0	4042	1028.166215340438	2
0	4044	1028.435937644037	3
0	4050	1030.250710817702	4
0	4051	1031.216792715027	3
0	4057	1034.155082666781	2
0	4064	1035.755033839129	3
0	4065	1035.863408853093	2
0	4072	1037.36600277063	1
0	4077	1037.837594905464	0
0	4081	1039.776154938341	1
0	4086	1040.75151114633	0
0	4107	1042.934933294533	1
0	4109	1043.188301186269	2
0	4110	1043.270130803422	1
0	4116	1045.78407048064	0
0	4123	1046.796387589604	1
0	4124	1048.598909323278	0
0	4158	1057.876810330182	1
0	4160	1058.27325945087	2
0	4163	1059.697444081347	1
0	4170	1060.307718795277	0
0	4176	1061.396696449117	1
0	4177	1061.473774086491	0
0	4181	1064.36673313731	1
0	4190	1067.368607847661	0
0	4213	1072.959480197625	1
0	4215	1073.947629380925	0
0	4229	1074.880832098448	1
0	4231	1076.104221454385	0
0	4247	1078.62221602304	1
0	4248	1080.75563686736	0
0	4254	1082.060859093792	1
0	4256	1082.524976372478	0
0	4278	1088.993806873753	1
0	4281	1089.457340806623	0
0	4292	1090.707537702399	1
0	4293	1091.02935584434	0
0	4313	1092.756019366761	1
0	4314	1094.091262848852	0
0	4318	1095.081051003537	1
0	4320	1096.581167729814	2
0	4322	1096.593402731129	3
0	4328	1099.632165659764	2
0	4334	1100.005408389265	3
0	4335	1100.915332174628	2
0	4340	1102.523707439997	1
0	4345	1102.863606163334	0
0	4351	1104.229574759617	1
0	4355	1105.059759412702	2
0	4357	1105.500613380694	3
0	4358	1105.79464473466	2
0	4365	1107.773915535907	1
0	4370	1107.927481109417	0
0	4399	1114.701069571889	1
0	4401	1114.928605430473	2
0	4404	1116.753661103679	1
0	4410	1118.318855585231	2
0	4411	1118.44568638262	1
0	4417	1120.194280046872	0
0	4482	1141.249648542232	1
0	4484	1141.743259957065	2
0	4487	1145.144768373297	1
0	4492	1146.207508702673	0
0	4545	1155.876015614019	1
0	4546	1156.16372338113	0
0	4583	1169.733378453509	1
0	4585	1169.801745658133	2
0	4588	1171.228889922889	1
0	4596	1172.139441895422	2
0	4598	1172.413669373006	3
0	4600	1172.41652045639	4
0	4601	1172.611735925217	3
0	4606	1173.068286207717	2
0	4611	1173.679081706254	1
0	4621	1175.588166951271	2
0	4622	1176.84442667121	1
0	4627	1176.929855123318	0
0	4634	1177.435391226952	1
0	4637	1177.620951704641	0
0	4641	1178.251993615144	1
0	4644	1181.731027798752	0
0	4673	1190.319950956172	1
0	4674	1190.390032960977	0
0	4680	1190.460375580795	1
0	4682	1190.611074520409	2
0	4683	1190.724497152745	1
0	4689	1193.125230238159	0
0	4699	1194.406372180915	1
0	4700	1195.107985062568	0
0	4709	1197.642684637556	1
0	4711	1199.17994319401	2
0	4715	1200.061735810317	3
0	4716	1201.835993428472	2
0	4721	1201.937541735301	1
0	4725	1202.678538063901	2
0	4728	1202.866181886133	1
0	4735	1205.927014979715	0
0	4739	1208.326360490117	1
0	4742	1208.988277578846	0
0	4746	1209.534627471283	1
0	4749	1210.593274599169	0
0	4753	1212.542131447142	1
0	4758	1213.967241487811	0
0	4762	1214.180626491665	1
0	4766	1215.392313743425	2
0	4767	1216.502904360524	1
0	4773	1218.015534444856	2
0	4775	1218.38911685671	1
0	4783	1219.474768825247	2
0	4785	1220.747735023222	3
0	4786	1221.211515861452	2
0	4790	1223.590552002226	3
0	4793	1224.753154985558	2
0	4797	1225.341746876645	3
0	4799	1226.464583904884	4
0	4804	1227.136438893313	3
0	4808	1227.253619213053	4
0	4810	1229.201662097126	5
0	4813	1230.00855701173	4
0	4818	1232.496621056242	3
0	4823	1233.08544573189	2
0	4829	1234.547672465907	3
0	4833	1237.515690120099	2
0	4838	1237.739819207319	1
0	4843	1237.984050381417	0
0	4847	1239.843286524678	1
0	4854	1242.913461356454	0
0	4867	1244.134853177546	1
0	4868	1245.680693308378	0
0	4911	1256.964336421463	1
0	4918	1258.821862339206	2
0	4919	1259.107825049363	1
0	4925	1260.416537752705	0
0	4932	1260.879133515033	1
0	4934	1261.872411692927	0
0	4940	1261.924704807812	1
0	4941	1262.28336787253	0
0	4955	1263.202619224139	1
0	4957	1263.674645836745	2
0	4960	1264.8223289591	3
0	4962	1266.249522076453	4
0	4963	1267.181728195125	3
0	4969	1267.198408388471	4
0	4971	1267.765618309576	3
0	4976	1268.30643162303	2
0	4980	1271.049062831704	3
0	4987	1275.45661968708	4
0	4988	1275.546667092863	3
0	4993	1275.548103033776	2
0	5003	1276.766808638383	1
0	5009	1277.053213393757	2
0	5011	1277.294392602708	1
0	5016	1278.076532481153	0
0	5032	1279.843514848243	1
0	5037	1281.171309192155	2
0	5038	1282.146781121474	1
0	5044	1284.369814916418	2
0	5045	1284.500405083034	1
0	5051	1285.511137749928	0
0	5076	1288.480207708602	1
0	5078	1289.521670820174	0
0	5104	1295.150166524531	1
0	5109	1296.458717610224	2
0	5111	1297.309037383133	3
0	5112	1298.034846966469	2
0	5117	1298.353324496485	1
0	5124	1298.878962276066	0
0	5128	1299.219668858371	1
0	5131	1300.496653298467	0
0	5135	1301.208195984598	1
0	5137	1301.572599349232	2
0	5141	1302.273957200322	3
0	5144	1303.221508676024	4
0	5145	1303.807724248272	3
0	5151	1303.860287012403	4
0	5152	1304.239205293102	3
0	5159	1305.717597294568	4
0	5160	1306.946626271701	3
0	5168	1307.556323033891	4
0	5170	1307.797984898707	5
0	5171	1307.816398349666	4
0	5176	1309.523687587233	3
0	5185	1313.406775069642	2
0	5190	1314.231337090437	1
0	5195	1314.817796675348	0
0	5213	1322.90189596447	1
0	5216	1323.502860401276	0
0	5223	1324.645754914835	1
0	5225	1325.144848786749	0
0	5231	1325.408648025209	1
0	5234	1329.009048271759	0
0	5263	1336.226326459367	1
0	5266	1336.754444011819	0
0	5288	1342.668494182447	1
0	5291	1345.783016625989	0
0	5316	1351.107541199964	1
0	5317	1351.131889376577	0
0	5336	1357.3410620314	1
0	5337	1359.129584301307	0
0	5349	1359.264218355124	1
0	5350	1360.20486065876	0
0	5356	1360.551330059821	1
0	5359	1361.855595289245	0
0	5388	1372.752967096428	1
0	5391	1374.861936346291	0
0	5442	1388.824741140208	1
0	5443	1389.008752151947	0
0	5462	1395.29713894521	1
0	5466	1396.022697762627	2
0	5468	1396.112648883941	3
0	5473	1398.471749134679	2
0	5478	1398.629270890796	1
0	5486	1400.787621782933	0
0	5545	1414.14652363896	1
0	5547	1414.429094866787	0
0	5553	1414.482938511578	1
0	5555	1415.143663080242	0
0	5577	1420.217456184915	1
0	5578	1420.664988045267	0
0	5626	1434.54139067703	1
0	5627	1434.64758948219	0
0	5666	1451.174354517489	1
0	5668	1451.590860251965	0
0	5689	1455.900291482049	1
0	5691	1456.184268509251	2
0	5693	1456.656964951678	3
0	5695	1457.053318480734	4
0	5698	1458.709966500328	3
0	5708	1461.52774491264	4
0	5710	1462.265497218592	5
0	5711	1462.75771716728	4
0	5716	1463.831603250207	3
0	5721	1463.961864417871	2
0	5727	1464.775813590772	1
0	5735	1468.425549334881	0
0	5751	1470.416429044366	1
0	5755	1471.897460108389	2
0	5757	1472.586587695016	1
0	5762	1472.954862094263	0
0	5787	1480.858314897218	1
0	5788	1481.222232073839	0
0	5850	1500.982839471131	1
0	5853	1501.751753640404	0
0	5874	1507.105044712056	1
0	5875	1507.486391854173	0
0	5899	1514.163117968993	1
0	5902	1514.769958747614	0
0	5922	1517.994094284545	1
0	5923	1518.90803952821	0
0	5985	1542.701810025528	1
0	5986	1542.745115845288	0
0	5996	1546.491944325199	1
0	5997	1547.09029309246	0
0	6016	1549.262438637956	1
0	6017	1549.312365287349	0
0	6056	1558.921750310393	1
0	6057	1559.794414766027	0
0	6153	1595.653459635597	1
0	6156	1597.916702115871	0
0	6204	1610.890547947567	1
0	6205	1610.932575019799	0
0	6216	1613.732649861181	1
0	6218	1614.875871990553	2
0	6222	1617.959936451368	3
0	6224	1618.594425850568	2
0	6230	1618.777846420922	3
0	6231	1619.068861375466	2
0	6235	1619.283488042626	3
0	6242	1621.352678059171	4
0	6243	1621.862334648928	3
0	6249	1622.745340970631	2
0	6255	1623.00721673816	3
0	6257	1623.687277711401	4
0	6258	1623.80139566063	3
0	6266	1625.472374283768	2
0	6271	1626.16626371988	1
0	6278	1627.568819779618	0
0	6327	1655.976133657558	1
0	6328	1656.223488905519	0
0	6334	1656.896425955303	1
0	6336	1658.395571196444	0
0	6342	1658.423127037142	1
0	6343	1658.612498011495	0
0	6357	1660.154192475103	1
0	6361	1662.63363204811	0
0	6367	1663.106057680598	1
0	6368	1663.251021295492	0
0	6375	1664.417785482661	1
0	6376	1664.486307833315	0
0	6382	1664.585864710864	1
0	6383	1665.190492046195	0
0	6387	1665.38013491532	1
0	6391	1667.2363574922	2
0	6394	1667.835737583682	1
0	6400	1668.951153895484	0
0	6437	1674.297515296559	1
0	6438	1674.702299083883	0
0	6442	1675.230821961432	1
0	6447	1676.402995791699	0
0	6451	1676.733701684002	1
0	6454	1677.734098588402	0
0	6458	1678.780633046407	1
0	6465	1682.337868372838	0
0	6486	1687.40247605228	1
0	6487	1687.766173228644	0
0	6502	1689.94444528177	1
0	6507	1691.915683964496	2
0	6510	1692.621248508719	3
0	6511	1693.492483638759	2
0	6516	1693.822455429314	1
0	6522	1695.344986865465	2
0	6526	1696.849294723577	3
0	6527	1696.924876807637	2
0	6533	1698.523240222581	3
0	6536	1699.507229264599	4
0	6537	1699.830705325687	3
0	6542	1699.936321142783	2
0	6551	1703.456028220207	3
0	6552	1703.978120375675	2
0	6557	1704.349842468353	1
0	6564	1705.183756283734	0
0	6581	1706.793152049558	1
0	6583	1707.286796233208	2
0	6586	1708.709387810584	3
0	6587	1708.729744710849	2
0	6592	1709.438313761614	1
0	6597	1709.85883526954	0
0	6614	1713.295302912537	1
0	6616	1713.404984631245	2
0	6620	1717.070248980578	3
0	6621	1718.080851939092	2
0	6627	1719.401101921172	1
0	6632	1719.977675921963	0
0	6652	1723.822602516655	1
0	6654	1724.356849706876	0
0	6682	1730.279022487885	1
0	6684	1730.612455447966	2
0	6686	1731.589209698225	3
0	6690	1734.561049768515	4
0	6697	1738.768572645131	3
0	6704	1740.497507323952	4
0	6705	1740.747178633962	3
0	6711	1741.663333250667	2
0	6717	1741.781587959598	3
0	6718	1742.763298080934	2
0	6725	1744.463447921104	1
0	6731	1745.101960725347	0
0	6742	1745.879220372663	1
0	6743	1747.063792203104	0
0	6767	1754.5531491762	1
0	6774	1758.006471712198	2
0	6776	1758.08787207493	3
0	6777	1758.372368915925	2
0	6782	1758.400351432234	1
0	6790	1758.993456799079	2
0	6793	1759.151050829825	1
0	6797	1760.27208796071	2
0	6802	1761.122982716176	3
0	6804	1761.393878435576	4
0	6806	1761.718417702429	3
0	6813	1762.039510919272	4
0	6814	1762.120287679739	3
0	6821	1762.903263731383	4
0	6822	1764.745880312039	3
0	6829	1765.225269416124	2
0	6835	1765.979441059094	3
0	6838	1766.312509278381	4
0	6842	1766.559626209183	5
0	6843	1766.699995432543	4
0	6849	1767.954479173688	3
0	6854	1768.15834887483	2
0	6860	1769.808275483528	1
0	6869	1770.986368710885	0
0	6904	1775.739076876612	1
0	6906	1776.038784930996	2
0	6912	1777.723893804551	3
0	6913	1778.145415037519	2
0	6920	1778.607149246305	3
0	6923	1779.724833369548	2
0	6928	1783.545778056341	1
0	6933	1783.754459494412	0
0	6939	1784.465430099719	1
0	6940	1785.500840786076	0
0	6946	1786.471064529781	1
0	6947	1786.511312092767	0
0	6965	1791.908460164442	1
0	6967	1793.28536155682	2
0	6970	1794.894916822006	1
0	6977	1795.728673135095	2
0	6978	1795.902772913201	1
0	6984	1796.100072210101	2
0	6987	1797.846020877293	3
0	6989	1797.86975064995	4
0	6990	1798.842666049851	3
0	6996	1799.43845326941	2
0	7001	1799.476027265357	1
0	7008	1801.662465563706	2
0	7009	1802.07656108729	1
0	7014	1802.095732180099	0
0	7039	1810.320321219473	1
0	7043	1811.196660718088	2
0	7044	1812.111537368508	1
0	7049	1812.504194958629	0
0	7065	1816.269087788133	1
0	7069	1817.946293447738	2
0	7072	1818.370351219665	1
0	7077	1818.829177124929	0
0	7089	1821.618258129469	1
0	7090	1821.80324108077	0
0	7098	1823.584639033671	1
0	7100	1823.74271605007	2
0	7101	1823.758334035122	1
0	7106	1823.837396646199	0
0	7173	1849.455724313862	1
0	7176	1850.4452092219	2
0	7177	1850.452033108633	1
0	7183	1850.48810287812	2
0	7186	1850.728838447469	3
0	7188	1851.426136616332	4
0	7189	1851.61658620667	3
0	7195	1852.032992519217	4
0	7202	1854.510703906883	5
0	7205	1855.57539667706	4
0	7210	1856.536028645232	3
0	7217	1856.996663391181	2
0	7224	1858.298599227363	3
0	7226	1858.724816343607	4
0	7230	1859.322248837527	5
0	7231	1861.795572609225	4
0	7236	1862.480381456707	3
0	7241	1863.368143832038	2
0	7247	1865.186390279038	3
0	7250	1865.497686131935	2
0	7256	1867.38014747452	1
0	7262	1867.447245186923	2
0	7264	1867.736627040593	1
0	7269	1868.004696797641	0
0	7282	1869.948534814515	1
0	7283	1870.547651868713	0
0	7304	1873.753023505078	1
0	7307	1875.893899426422	0
0	7316	1878.4357124932	1
0	7318	1879.481479182862	2
0	7320	1879.588205339482	3
0	7325	1883.264562503228	2
0	7331	1884.150088280578	1
0	7338	1884.310601207256	0
0	7350	1886.553497632701	1
0	7351	1886.598209799865	0
0	7368	1891.585732757992	1
0	7369	1892.206023857731	0
0	7397	1897.175559850637	1
0	7400	1897.742837131082	0
0	7413	1901.543369253979	1
0	7414	1901.774317891348	0
0	7436	1904.956045877318	1
0	7438	1906.494740336507	2
0	7439	1906.673303189382	1
0	7444	1907.174107639583	0
0	7453	1909.04202611864	1
0	7456	1909.427447765311	0
0	7472	1913.203200974218	1
0	7476	1914.304886831294	2
0	7477	1915.39465228839	1
0	7486	1918.064009138734	2
0	7488	1918.165958273104	3
0	7489	1919.481230581039	2
0	7496	1921.834363017553	3
0	7497	1922.120748231151	2
0	7502	1922.39272145748	1
0	7508	1924.330622150375	0
0	7520	1925.194212606664	1
0	7521	1925.568647464547	0
0	7527	1925.830085417553	1
0	7528	1926.438395964166	0
0	7539	1927.818606590025	1
0	7541	1928.741696156866	0
0	7547	1930.024303940968	1
0	7549	1930.213463940975	2
0	7555	1933.353298966835	1
0	7563	1934.241138511036	0
0	7569	1935.148294183176	1
0	7573	1935.707006643823	2
0	7575	1935.79508406606	3
0	7577	1936.303674840933	4
0	7578	1936.447265082719	3
0	7583	1936.999286317992	2
0	7589	1937.86716404574	1
0	7594	1939.172525578946	0
0	7612	1942.608234437264	1
0	7614	1943.677287779416	2
0	7616	1948.182177334524	3
0	7619	1950.178101746056	2
0	7625	1951.185059893515	1
0	7633	1951.686745957599	2
0	7635	1952.560592446326	1
0	7640	1953.114809670377	0
0	7661	1955.910731393128	1
0	7664	1956.736850203862	0
0	7681	1962.738312923517	1
0	7686	1964.308628530759	2
0	7687	1965.5505299992	1
0	7692	1965.640117627386	0
0	7709	1967.175924176424	1
0	7710	1967.516789728757	0
0	7731	1969.78750736417	1
0	7734	1971.485579904997	0
0	7748	1973.070657004426	1
0	7749	1973.678145979321	0
0	7760	1977.20480292181	1
0	7764	1978.813679628598	2
0	7766	1979.581316765197	3
0	7772	1980.44745574013	4
0	7773	1980.663945599693	3
0	7781	1981.560546097363	2
0	7786	1982.760387555019	1
0	7793	1986.85092259643	2
0	7794	1987.43175035317	1
0	7799	1987.927383648697	0
0	7803	1989.63924861164	1
0	7805	1989.959069388273	2
0	7807	1990.923917147001	3
0	7814	1991.713166132935	4
0	7815	1992.147161619065	3
0	7822	1992.555631025888	4
0	7823	1992.874514192774	3
0	7831	1994.49985893656	2
0	7836	1994.955438005477	1
0	7840	1995.708543455157	2
0	7845	1998.295560092512	1
0	7850	1998.398585986402	0
0	7857	1998.606241541882	1
0	7858	1999.286547935663	0
0	7875	2001.346223063496	1
0	7877	2002.161045155247	0
0	7883	2002.287387141852	1
0	7884	2002.56583323707	0
0	7897	2006.388926199596	1
0	7903	2008.173771189035	2
0	7906	2009.285152002851	1
0	7911	2009.477123659306	0
0	7923	2010.339144359811	1
0	7924	2010.45066815614	0
0	7930	2010.998464767991	1
0	7934	2012.138086087155	2
0	7935	2012.23537291308	1
0	7941	2012.936780830435	0
0	7985	2021.174852375869	1
0	7989	2022.641418368909	2
0	7990	2022.98635640618	1
0	7996	2023.12674454889	2
0	7998	2023.417418841673	1
0	8004	2024.920984512081	0
0	8019	2026.113206553521	1
0	8020	2026.46025211756	0
0	8034	2029.330740348751	1
0	8036	2029.374475426213	2
0	8038	2030.168698337203	3
0	8041	2030.416771114299	4
0	8047	2031.64157645588	5
0	8049	2031.875533835185	6
0	8051	2033.193243723702	7
0	8052	2033.243856362514	6
0	8062	2035.054654109178	5
0	8067	2035.097746059856	4
0	8073	2035.108478472823	5
0	8074	2035.116156805882	4
0	8082	2036.289173653485	5
0	8084	2038.333184535951	6
0	8086	2038.659075286126	7
0	8091	2040.045828834803	8
0	8093	2040.988997919343	7
0	8098	2041.103699180665	6
0	8103	2041.608935971544	5
0	8107	2041.636885335607	6
0	8116	2043.877928660164	5
0	8121	2044.243369374798	4
0	8127	2044.606345898514	5
0	8129	2044.721748290872	6
0	8130	2044.9674120848	5
0	8138	2046.404298066672	6
0	8145	2048.641980363327	7
0	8146	2048.831569197925	6
0	8153	2051.661525138892	5
0	8159	2052.512900690607	6
0	8161	2052.795374808375	7
0	8162	2052.899148043012	6
0	8169	2055.13439808745	5
0	8177	2056.36145459077	4
0	8184	2057.5687691082	3
0	8190	2057.793737759307	4
0	8195	2058.382857949922	3
0	8200	2058.628361063543	2
0	8206	2058.642805898795	3
0	8208	2059.660779550886	4
0	8211	2060.208597677732	3
0	8215	2061.63099418359	4
0	8217	2062.596595537547	5
0	8220	2065.863665977511	4
0	8226	2066.636907717785	3
0	8231	2066.85538063508	2
0	8235	2066.878873099326	3
0	8237	2067.579957430469	4
0	8240	2069.653370210921	3
0	8246	2072.878242906261	4
0	8250	2073.667019821949	3
0	8255	2074.000313400658	2
0	8260	2074.465916965826	1
0	8265	2075.792238493745	0
0	8288	2081.008425183704	1
0	8290	2081.343003557628	2
0	8291	2081.378462059334	1
0	8298	2081.726068655346	0
0	8350	2090.736078035977	1
0	8352	2090.946213883665	2
0	8353	2091.408218419598	1
0	8360	2093.169859236353	0
0	8372	2093.647488535399	1
0	8373	2096.407912345901	0
0	8388	2098.040885320963	1
0	8390	2098.584318142871	2
0	8392	2098.881131084427	3
0	8398	2102.461479836491	2
0	8403	2103.085041345307	1
0	8409	2104.216501614644	0
0	8443	2109.403960612908	1
0	8444	2111.340569892925	0
0	8453	2114.073344013906	1
0	8456	2114.524399379194	0
0	8463	2115.523323452331	1
0	8466	2116.432604158428	0
0	8476	2119.505853712914	1
0	8480	2119.757404023093	2
0	8481	2120.904267648861	1
0	8486	2121.048300092381	0
0	8524	2130.773608167086	1
0	8528	2131.042070726446	2
0	8530	2131.820603751961	3
0	8534	2132.548547885157	2
0	8542	2134.340234542012	1
0	8548	2135.728772223689	0
0	8562	2136.697346816733	1
0	8568	2143.690086511775	0
0	8617	2153.749580573939	1
0	8621	2155.526759306694	0
0	8634	2157.307419837476	1
0	8636	2159.915958150238	0
0	8660	2168.36434602397	1
0	8662	2168.601621321762	2
0	8667	2171.232939541203	1
0	8673	2171.393316204242	2
0	8677	2172.486876418776	1
0	8684	2173.469961206945	0
0	8691	2174.176401453041	1
0	8693	2175.55642844653	0
0	8715	2178.087246707814	1
0	8718	2178.583644363332	0
0	8724	2178.983054474415	1
0	8725	2179.088230695054	0
0	8738	2179.586753204063	1
0	8741	2180.084930831401	0
0	8758	2183.236910489502	1
0	8762	2185.24173652438	2
0	8763	2186.707643766533	1
0	8769	2189.067056349281	0
0	8791	2198.700597451117	1
0	8793	2198.717313512847	2
0	8797	2201.372619495031	3
0	8801	2203.105003878972	4
0	8802	2203.177984624713	3
0	8807	2204.539601218331	2
0	8812	2204.961010269881	1
0	8817	2206.567378513073	0
0	8821	2206.627718012969	1
0	8826	2209.840204674094	0
0	8832	2209.942674209896	1
0	8833	2210.373559274491	0
0	8859	2213.28743415467	1
0	8860	2213.69877298607	0
0	8898	2226.127112713252	1
0	8902	2226.578138939427	2
0	8903	2227.495037649631	1
0	8909	2227.843351598381	0
0	8927	2228.933636094016	1
0	8928	2228.961348672562	0
0	8943	2231.037951227673	1
0	8944	2231.058186201543	0
0	8955	2233.627898668148	1
0	8956	2234.056208914112	0
0	8969	2239.812953822969	1
0	8971	2240.297364262038	2
0	8972	2240.990718447583	1
0	8979	2241.750918003638	0
0	9005	2244.663618784709	1
0	9007	2244.835440982221	2
0	9008	2245.16671839832	1
0	9013	2245.729223058089	0
0	9026	2247.425439440245	1
0	9028	2248.923368725019	0
0	9040	2252.187801143617	1
0	9044	2254.803484412167	0
0	9053	2255.07936758233	1
0	9054	2255.655568256189	0
0	9060	2255.748084880386	1
0	9064	2258.315413096194	0
0	9092	2264.996363875622	1
0	9093	2265.374032959538	0
0	9107	2267.790976223479	1
0	9109	2268.998306746265	0
0	9115	2269.465676535222	1
0	9120	2270.226255565331	2
0	9122	2270.517835035731	1
0	9127	2271.188767998605	0
0	9204	2287.908728774624	1
0	9205	2288.460375921234	0
0	9238	2299.317226744663	1
0	9240	2299.442179373446	2
0	9242	2299.836137418351	3
0	9243	2300.531059771161	2
0	9249	2302.038825413535	1
0	9255	2302.462581222925	2
0	9256	2302.651133580103	1
0	9262	2303.155563942802	0
0	9285	2305.907406739066	1
0	9286	2306.798325703287	0
0	9344	2328.475555768493	1
0	9348	2329.898738351946	0
0	9360	2331.879791807184	1
0	9362	2332.967639049884	0
0	9400	2340.668604990252	1
0	9402	2341.420743615146	0
0	9457	2353.725865432434	1
0	9462	2354.977182156373	0
0	9481	2356.543057376599	1
0	9482	2357.13848016008	0
0	9494	2361.53808128144	1
0	9497	2362.72931378006	2
0	9499	2363.395057309005	1
0	9505	2365.726836038924	0
0	9520	2368.735033792215	1
0	9521	2368.846684814442	0
0	9542	2375.603244197908	1
0	9544	2375.876541130928	2
0	9545	2376.385832504644	1
0	9551	2377.128728420535	2
0	9552	2377.793276741618	1
0	9557	2378.996734562899	0
0	9563	2380.486341812484	1
0	9565	2380.532395015929	2
0	9569	2383.123902013888	1
0	9574	2383.153913554438	0
0	9625	2395.195724548655	1
0	9626	2397.060667131564	0
0	9665	2404.995058155573	1
0	9666	2405.104528406906	0
0	9697	2412.747605112783	1
0	9699	2413.250993898359	0
0	9760	2430.432602243209	1
0	9761	2431.531059035598	0
0	9784	2437.508711674324	1
0	9785	2437.597573639862	0
0	9810	2442.166778020056	1
0	9811	2443.120728252863	0
0	9818	2444.194559944628	1
0	9822	2447.510603209765	0
0	9828	2447.588316638223	1
0	9831	2448.364483154622	2
0	9835	2449.344817720395	3
0	9836	2451.502712634394	2
0	9842	2453.33497517472	1
0	9848	2453.968392861578	0
0	9865	2454.782351819093	1
0	9866	2455.082453469986	0
0	9872	2455.095147045745	1
0	9875	2456.763327296894	2
0	9880	2457.465222558338	3
0	9882	2458.261524927287	2
0	9888	2459.689071860292	1
0	9897	2461.096168125279	2
0	9898	2463.924465434425	1
0	9903	2464.395747903243	0
0	9909	2464.460800895676	1
0	9910	2465.797939919896	0
0	9932	2471.81559343702	1
0	9933	2471.84870385491	0
0	9942	2472.371794782218	1
0	9944	2472.861956642061	2
0	9951	2475.817936088526	1
0	9959	2477.225115476626	0
0	9982	2480.665670261088	1
0	9983	2482.509033566746	0
0	9997	2484.10113103979	1
0	9998	2484.335585113748	0
0	10004	2484.883736653723	1
0	10007	2485.288637921466	2
0	10008	2485.7590012562	1
0	10015	2486.864582910611	0
0	10028	2488.030113482954	1
0	10030	2489.875120839743	2
0	10033	2490.808329392732	1
0	10040	2491.690379910835	2
0	10041	2491.71415712522	1
0	10051	2493.417771097675	2
0	10052	2495.524035022867	1
0	10057	2495.709957261601	0
0	10063	2495.827362032423	1
0	10067	2496.526112790637	0
0	10078	2497.455190939139	1
0	10081	2499.153653515087	0
0	10087	2499.48670513927	1
0	10093	2500.856341042667	0
0	10118	2505.829693192166	1
0	10119	2505.830812059283	0
0	10137	2509.754521582721	1
0	10138	2509.947519067836	0
0	10166	2515.239317580404	1
0	10168	2515.832195083193	0
0	10176	2516.652381893694	1
0	10178	2516.688873203098	2
0	10180	2518.228486620338	3
0	10181	2518.301312625567	2
0	10187	2519.922411328811	3
0	10190	2520.307087819788	2
0	10195	2520.863573502902	1
0	10201	2521.881420524638	2
0	10205	2528.892670810515	3
0	10209	2529.791484168388	2
0	10217	2530.852965058558	3
0	10218	2531.008914868411	2
0	10225	2531.419788428431	1
0	10231	2532.528821628167	0
0	10240	2536.279651611416	1
0	10242	2536.313754031383	2
0	10243	2537.439638206428	1
0	10249	2537.689567279303	2
0	10250	2538.371670941845	1
0	10256	2539.138612211611	2
0	10259	2539.57691825225	1
0	10263	2539.831311363125	2
0	10267	2541.575880164597	3
0	10272	2542.55814099707	4
0	10274	2543.921408276496	3
0	10281	2546.238360058487	4
0	10282	2546.264619711041	3
0	10287	2546.531415822833	2
0	10292	2546.719408248936	1
0	10297	2548.099010874381	0
0	10305	2550.883879601814	1
0	10308	2551.503093152593	2
0	10309	2552.412790762733	1
0	10314	2552.845555050156	0
0	10338	2561.517963154917	1
0	10339	2561.563555592685	0
0	10380	2570.745747901712	1
0	10381	2570.914371288427	0
0	10390	2572.23609208528	1
0	10396	2574.642376134595	0
0	10409	2576.720391818956	1
0	10410	2577.892087256665	0
0	10422	2578.740273092167	1
0	10423	2579.385723755492	0
0	10434	2580.218074072542	1
0	10436	2580.834604952124	0
0	10448	2583.750550282356	1
0	10452	2583.869634264157	2
0	10454	2584.09622798738	3
0	10456	2584.365179411164	4
0	10458	2584.565417974161	3
0	10465	2586.120802694506	2
0	10470	2586.18371481372	1
0	10478	2588.104981519547	0
0	10485	2588.385569054299	1
0	10486	2589.685313285911	0
0	10512	2594.938188090012	1
0	10516	2597.203970008213	2
0	10517	2598.133124215279	1
0	10523	2598.642227793243	0
0	10550	2609.342354609962	1
0	10552	2610.969307979238	2
0	10554	2611.16684388282	3
0	10555	2611.705060304089	2
0	10561	2611.984557946843	1
0	10567	2612.393334393386	2
0	10568	2612.45865262594	1
0	10574	2612.899776076253	0
0	10599	2623.928113141213	1
0	10600	2624.273003165663	0
0	10660	2636.930454528721	1
0	10662	2637.930834740394	0
0	10677	2640.792884913521	1
0	10679	2641.498460806245	0
0	10686	2642.784949543103	1
0	10687	2643.038688719254	0
0	10693	2643.129106659166	1
0	10694	2643.345569669636	0
0	10700	2643.595787321507	1
0	10703	2644.982411968471	0
0	10709	2645.601169494553	1
0	10711	2647.039351567542	0
0	10755	2656.171330608271	1
0	10756	2656.199968687511	0
0	10795	2667.538440400392	1
0	10796	2668.08068474012	0
0	10812	2671.75912487439	1
0	10814	2672.686010732279	2
0	10815	2673.671455091411	1
0	10820	2673.692940966703	0
0	10826	2673.836115141902	1
0	10828	2675.469947264405	0
0	10876	2688.869306715776	1
0	10878	2689.196576280411	0
0	10886	2691.762027653363	1
0	10888	2692.073187950734	2
0	10891	2693.421655546357	1
0	10899	2694.805035027924	0
0	10911	2695.123799431015	1
0	10914	2695.465689126967	0
0	10925	2698.198416287299	1
0	10928	2699.989312311523	0
0	10939	2700.963586885874	1
0	10940	2702.1044359171	0
0	10951	2703.862548100131	1
0	10953	2704.642813960025	0
0	10970	2711.289076764976	1
0	10971	2712.288587139943	0
0	10978	2713.268836449314	1
0	10980	2713.374991909863	0
0	10993	2714.706237520768	1
0	10995	2715.906425696598	2
0	10997	2716.051770035921	1
0	11002	2716.166770593923	0
0	11008	2716.225300659952	1
0	11009	2716.442432049336	0
0	11013	2719.403154441142	1
0	11017	2720.152392603409	2
0	11022	2722.493180123307	1
0	11027	2722.697467655592	0
0	11035	2725.145690641308	1
0	11038	2725.953847048982	0
0	11056	2729.579115152859	1
0	11057	2729.791467667291	0
0	11087	2734.474122740408	1
0	11092	2737.774466919989	0
0	11104	2738.706226480439	1
0	11107	2740.427060565445	0
0	11126	2744.634342907361	1
0	11127	2744.809551062465	0
0	11133	2746.359214216953	1
0	11135	2749.576214464746	0
0	11141	2750.284659296668	1
0	11144	2752.024672625946	2
0	11147	2752.417781047528	1
0	11152	2753.357744073894	0
0	11161	2754.694715548905	1
0	11163	2755.009437350569	2
0	11165	2755.540401178717	3
0	11167	2760.157622947564	4
0	11172	2762.887715748785	3
0	11179	2765.116926425204	2
0	11184	2767.748569887837	1
0	11192	2772.552785901386	0
0	11242	2779.834084749885	1
0	11244	2781.194113932018	2
0	11245	2782.451475905522	1
0	11251	2782.503853300574	2
0	11254	2782.703131732949	1
0	11262	2787.499827255968	0
0	11330	2802.422590069984	1
0	11331	2802.619778915892	0
0	11404	2826.101646692938	1
0	11406	2827.119135729202	2
0	11408	2827.639937569018	3
0	11414	2829.192433829309	2
0	11419	2829.58802577162	1
0	11426	2831.080707600817	2
0	11430	2833.003016597305	3
0	11435	2834.159341226949	4
0	11437	2834.483650783499	5
0	11438	2834.906381571417	4
0	11444	2835.209911074394	5
0	11446	2837.392662183179	4
0	11452	2838.438683195691	3
0	11458	2839.149171141023	4
0	11459	2839.613995060228	3
0	11464	2839.885990340297	2
0	11468	2840.045652007885	3
0	11470	2840.141162645914	4
0	11478	2846.126575430946	3
0	11483	2846.445930991245	2
0	11490	2848.40406867899	1
0	11494	2848.956478512809	2
0	11500	2852.097589544961	1
0	11509	2852.749607855483	0
0	11521	2855.696219456049	1
0	11522	2856.074486003238	0
0	11528	2856.122785991392	1
0	11536	2858.196079992255	2
0	11539	2859.143118130811	1
0	11547	2859.862026324193	0
0	11561	2860.950764200163	1
0	11565	2861.74509493905	2
0	11566	2861.833744473815	1
0	11570	2862.346926775696	2
0	11576	2865.256680143147	1
0	11582	2865.593188244329	2
0	11584	2866.605276375788	3
0	11585	2867.071963679527	2
0	11590	2868.585257739282	1
0	11595	2869.240009616044	0
0	11627	2875.847843656524	1
0	11630	2876.573959933738	0
0	11644	2878.9368804943	1
0	11649	2879.339248499057	2
0	11652	2880.715354687676	3
0	11654	2881.366744959948	4
0	11655	2882.387561873414	3
0	11660	2882.937098598982	2
0	11665	2883.20726838766	1
0	11669	2884.034735868441	2
0	11672	2886.33779561175	1
0	11676	2886.712154407411	2
0	11680	2887.99383335025	1
0	11685	2888.684866598425	0
0	11689	2889.554142681159	1
0	11693	2890.96182322666	2
0	11695	2891.066939300214	3
0	11699	2892.610198424029	2
0	11704	2893.556155650561	1
0	11708	2894.138918873259	2
0	11713	2896.116837750127	1
0	11720	2898.46723228894	0
0	11749	2905.443999569925	1
0	11752	2908.443545861067	0
0	11761	2908.81534989424	1
0	11768	2911.299587926576	0
0	11791	2915.9191782515	1
0	11793	2918.789719677359	0
0	11805	2920.445380142857	1
0	11808	2921.461112794564	0
0	11841	2928.005548509078	1
0	11846	2929.569033713131	0
0	11852	2929.602131912853	1
0	11853	2929.736181799319	0
0	11859	2930.025740142602	1
0	11864	2931.048518172826	2
0	11867	2931.32632567357	3
0	11868	2932.128322131154	2
0	11877	2934.191020834468	3
0	11878	2934.22172986552	2
0	11883	2934.45257265511	1
0	11888	2935.650580210888	0
0	11929	2945.311643502025	1
0	11931	2945.390167142723	0
0	11937	2945.77788818674	1
0	11939	2945.89788048239	2
0	11943	2946.244707091971	3
0	11946	2946.341925926106	2
0	11951	2946.689135739471	1
0	11955	2950.220345157211	2
0	11959	2951.361270422954	3
0	11963	2952.282910829499	4
0	11964	2952.480829629203	3
0	11971	2953.756722650634	2
0	11976	2954.013439420706	1
0	11984	2955.231788891438	0
0	11999	2955.788021512903	1
0	12001	2956.475173388703	2
0	12004	2959.139727594607	1
0	12013	2960.424005964696	2
0	12014	2961.477933648037	1
0	12021	2962.497402833355	0
0	12033	2964.711397103918	1
0	12034	2965.198586771421	0
0	12041	2966.520205558594	1
0	12043	2966.695928656092	2
0	12045	2966.748399006045	3
0	12046	2967.495203045222	2
0	12052	2967.91920454752	3
0	12054	2967.975617259566	4
0	12056	2969.064124068973	3
0	12061	2969.373964013733	2
0	12066	2970.661381905389	1
0	12073	2972.199324858674	0
0	12077	2972.251686438786	1
0	12080	2973.839366238505	0
0	12084	2974.34246798264	1
0	12087	2974.468904494412	0
0	12105	2978.252675041067	1
0	12106	2978.296516525598	0
0	12115	2978.777809002117	1
0	12119	2981.881339850388	0
0	12154	2988.786973041421	1
0	12156	2989.674664005026	0
0	12163	2990.577540031787	1
0	12165	2990.591498031122	2
0	12167	2990.963488350183	3
0	12171	2991.59926917901	4
0	12172	2991.661407528575	3
0	12177	2991.819660491419	2
0	12184	2992.851130388148	3
0	12185	2992.980062423876	2
0	12191	2993.062668067525	3
0	12192	2993.174386571103	2
0	12197	2994.789965770195	1
0	12201	2994.916760701709	2
0	12204	2996.875448768567	1
0	12208	2997.055110976889	2
0	12213	2999.053288999815	3
0	12216	3000.186433735901	2
0	12221	3000.879536423599	1
0	12225	3003.50202176006	2
0	12228	3003.510409622344	1
0	12232	3003.684349670891	2
0	12237	3006.427263041667	3
0	12240	3006.492432026361	2
0	12245	3007.140621127147	1
0	12251	3008.244687870666	2
0	12253	3008.46894694482	3
0	12254	3009.850168376134	2
0	12265	3013.258709408049	3
0	12266	3013.615850132197	2
0	12271	3013.837852916724	1
0	12277	3016.018815008033	0
0	12310	3019.764642094003	1
0	12312	3021.074967452372	0
0	12318	3021.533712154554	1
0	12320	3021.984024565258	2
0	12322	3022.973121951083	3
0	12323	3023.34751020016	2
0	12327	3023.487821880506	3
0	12329	3023.901351687195	4
0	12331	3024.51783612443	5
0	12333	3024.656609185788	6
0	12341	3027.078002940475	7
0	12345	3027.545511807406	8
0	12347	3028.172882687664	9
0	12348	3028.407670586239	8
0	12354	3028.549117402623	7
0	12360	3028.706907311565	6
0	12368	3031.278006083788	5
0	12378	3032.586300094171	6
0	12379	3033.186584866512	5
0	12385	3036.958912245123	4
0	12393	3038.793736315901	3
0	12398	3038.809621342587	2
0	12402	3039.096590862467	3
0	12404	3040.545498735468	4
0	12407	3042.387365894008	3
0	12411	3042.458205622858	4
0	12414	3043.211872869865	3
0	12423	3045.087510109544	2
0	12430	3046.578563243679	3
0	12432	3046.592360633027	4
0	12433	3047.433252579149	3
0	12439	3048.907778473021	2
0	12447	3049.508897201583	3
0	12448	3049.655927546719	2
0	12453	3050.891227279768	1
0	12457	3052.061396339863	2
0	12460	3053.684904466245	1
0	12467	3054.655269849229	0
0	12496	3059.604733440868	1
0	12498	3060.421012892436	0
0	12511	3063.053561213735	1
0	12513	3063.112035054746	2
0	12514	3064.182367455456	1
0	12519	3065.417072165626	0
0	12530	3066.616749865603	1
0	12531	3066.941760840267	0
0	12535	3070.212829853889	1
0	12537	3072.957867755229	2
0	12539	3073.435351777041	3
0	12543	3075.263799508154	4
0	12544	3075.569728076776	3
0	12550	3076.21765397394	4
0	12552	3076.639666649436	5
0	12556	3078.120110661675	6
0	12561	3078.865037565592	5
0	12573	3082.217267826856	4
0	12579	3085.888878568868	3
0	12584	3086.6825350696	2
0	12591	3087.852640240213	3
0	12592	3088.511770724496	2
0	12598	3088.676911368488	3
0	12599	3089.150860000057	2
0	12605	3089.632204894717	3
0	12607	3089.984130881534	2
0	12614	3091.819162044528	3
0	12615	3093.151024674124	2
0	12620	3094.134239629664	1
0	12629	3094.988742307523	2
0	12631	3096.121338130099	3
0	12632	3096.172359039273	2
0	12640	3097.440341177737	1
0	12647	3098.453433786536	0
0	12661	3099.947365005166	1
0	12662	3100.492183595697	0
0	12688	3102.400239501095	1
0	12690	3105.165146853425	2
0	12691	3105.917413759335	1
0	12697	3106.323490504917	2
0	12699	3107.244390218919	3
0	12701	3107.638599980748	2
0	12706	3108.227608200868	1
0	12711	3109.826532885974	0
0	12717	3112.588019124273	1
0	12718	3113.107767546003	0
0	12729	3114.503021861865	1
0	12731	3116.633663482537	0
0	12737	3116.817251523832	1
0	12739	3116.855298775807	2
0	12740	3117.231046451328	1
0	12745	3118.326788973757	0
0	12749	3120.800499400592	1
0	12751	3121.380190577107	2
0	12754	3124.606965779537	1
0	12759	3125.959896890057	0
0	12765	3126.277148816674	1
0	12768	3128.132550303665	0
0	12774	3132.856356432758	1
0	12776	3132.992492898278	2
0	12783	3136.302526456752	1
0	12790	3136.720138971748	0
0	12797	3139.428454791278	1
0	12798	3140.055167261579	0
0	12804	3140.416091633375	1
0	12805	3140.804864565	0
0	12818	3141.876784285913	1
0	12820	3142.177689746129	0
0	12843	3147.180997866504	1
0	12845	3147.607105371177	2
0	12846	3147.793038536536	1
0	12852	3149.559334114061	2
0	12855	3149.597980312009	1
0	12862	3150.681925154728	0
0	12940	3181.893973734213	1
0	12941	3181.988515380855	0
0	12950	3183.924624259767	1
0	12952	3186.483222317849	2
0	12953	3186.690609439425	1
0	12959	3186.843042753626	2
0	12962	3187.19406748374	3
0	12963	3187.215400348578	2
0	12968	3188.258919585229	1
0	12973	3188.373744069257	0
0	12977	3188.668678613653	1
0	12985	3191.796353489688	0
0	12997	3192.425142009656	1
0	12999	3194.396835364303	0
0	13034	3198.203268987764	1
0	13039	3200.770028593548	0
0	13048	3202.287954175827	1
0	13054	3203.984615373268	2
0	13060	3205.348689785318	1
0	13066	3208.94934562049	0
0	13084	3214.716746243667	1
0	13085	3214.863448977742	0
0	13092	3215.420386370582	1
0	13093	3215.546027913291	0
0	13148	3230.46528287899	1
0	13149	3230.638419174273	0
0	13158	3231.916988811486	1
0	13161	3233.151180394358	0
0	13190	3240.542868146259	1
0	13193	3242.825201918864	0
0	13223	3251.440714641984	1
0	13225	3251.551587687527	2
0	13226	3251.640015501953	1
0	13232	3253.500822235911	0
0	13262	3263.543323300201	1
0	13264	3263.719185140462	2
0	13267	3265.449683038798	1
0	13273	3265.992033856845	0
0	13280	3266.698990184568	1
0	13284	3268.290581087301	2
0	13285	3269.060892293355	1
0	13290	3269.695146023827	0
0	13311	3273.782048927908	1
0	13314	3275.25746236056	0
0	13320	3275.586933248153	1
0	13323	3277.247657586937	0
0	13332	3280.836866134652	1
0	13334	3281.020041515837	2
0	13335	3282.016601659978	1
0	13340	3283.539303206325	0
0	13361	3286.068747598359	1
0	13363	3286.851082578005	2
0	13370	3288.630730256594	3
0	13373	3289.566844889432	2
0	13378	3290.015151970293	1
0	13384	3295.384610499488	0
0	13392	3298.099370948369	1
0	13394	3298.099560983309	2
0	13395	3298.167254018115	1
0	13400	3299.057480422002	0
0	13408	3300.60053090263	1
0	13410	3300.916079120348	2
0	13411	3301.991926232285	1
0	13422	3303.825590401423	0
0	13448	3311.556739621887	1
0	13456	3318.675701431051	2
0	13461	3319.147288758264	1
0	13467	3319.790054559104	0
0	13475	3320.52870013924	1
0	13478	3320.755275821139	2
0	13479	3321.064269743638	1
0	13484	3321.307000901602	0
0	13502	3323.036470270778	1
0	13503	3323.191527881901	0
0	13509	3323.667844218141	1
0	13510	3324.160869281253	0
0	13519	3324.528438143476	1
0	13526	3326.212730575421	2
0	13529	3326.46981662769	3
0	13531	3326.513965653272	4
0	13532	3326.826342948204	3
0	13538	3327.862098323156	2
0	13550	3330.380221833729	3
0	13551	3331.435061790527	2
0	13557	3331.865714961857	3
0	13560	3332.484722999074	2
0	13565	3332.936727027451	1
0	13569	3334.192444049702	2
0	13575	3335.288009041427	3
0	13577	3335.53079375457	4
0	13579	3335.727617444466	5
0	13580	3335.993357032419	4
0	13584	3336.208202069293	5
0	13587	3336.678422436078	4
0	13591	3336.853860953641	5
0	13594	3340.893640092278	4
0	13603	3342.23628864072	3
0	13608	3342.530213617665	2
0	13612	3344.002387805677	3
0	13614	3344.472485665484	4
0	13616	3345.311953978941	5
0	13618	3345.343257259459	6
0	13622	3346.58479879946	7
0	13626	3347.168194210842	8
0	13629	3348.15933983203	7
0	13634	3348.425983624632	6
0	13639	3349.270085544428	5
0	13645	3350.317424779936	6
0	13650	3351.42152956643	7
0	13651	3352.357939742827	6
0	13657	3354.100590006663	5
0	13664	3356.119882336976	4
0	13669	3358.240040573353	3
0	13673	3359.601852275529	4
0	13676	3360.371769846852	3
0	13682	3363.661323340465	2
0	13688	3364.29874887079	1
0	13693	3364.91219959825	0
0	13697	3365.223585174523	1
0	13700	3365.827162507386	0
0	13706	3366.260813620764	1
0	13709	3366.654941719614	0
0	13713	3367.493130794742	1
0	13718	3370.319846889953	0
0	13724	3370.640915909546	1
0	13725	3370.804363114623	0
0	13731	3370.999592532555	1
0	13732	3372.24570889485	0
0	13763	3377.439629579973	1
0	13765	3377.81160306663	2
0	13766	3378.920109373444	1
0	13771	3379.575869679739	0
0	13783	3381.388024891414	1
0	13787	3382.714423076175	2
0	13792	3384.306024822721	3
0	13793	3385.240351772854	2
0	13798	3385.829244529745	1
0	13807	3388.604162021729	0
0	13813	3388.888346947731	1
0	13816	3392.036142406371	0
0	13820	3392.251463307533	1
0	13825	3395.101968486155	2
0	13826	3395.760660386521	1
0	13831	3396.44220813766	0
0	13844	3397.822082918615	1
0	13847	3398.321772508595	0
0	13868	3401.054988574117	1
0	13873	3402.756765711009	0
0	13895	3408.592173217426	1
0	13899	3408.686565621103	2
0	13903	3412.508123999953	3
0	13906	3413.961676273473	2
0	13912	3414.355023616154	1
0	13920	3416.950984214472	0
0	13938	3418.467389270209	1
0	13939	3418.563476876865	0
0	13993	3430.488823667157	1
0	13995	3431.255593154729	2
0	13997	3431.722747403996	3
0	13998	3431.846859966575	2
0	14004	3432.149017942287	3
0	14005	3434.22081369476	2
0	14012	3434.632592430341	1
0	14024	3437.023299398329	2
0	14025	3438.417291199943	1
0	14030	3438.610520678794	0
0	14042	3440.633089073924	1
0	14046	3441.815589378256	0
0	14057	3444.303415019103	1
0	14059	3444.800124745326	2
0	14064	3445.675642913256	1
0	14069	3445.751944692061	0
0	14079	3450.240593819723	1
0	14080	3451.843804905995	0
0	14086	3452.138901322009	1
0	14087	3452.253324853608	0
0	14096	3454.971142087046	1
0	14098	3455.006705186498	2
0	14103	3456.006644356983	1
0	14109	3456.937005868888	0
0	14134	3464.036924161788	1
0	14137	3465.713161530934	0
0	14150	3467.4290612055	1
0	14153	3469.610423723561	0
0	14164	3471.645799596121	1
0	14168	3475.335373086286	2
0	14169	3476.055747755743	1
0	14174	3477.587089675749	0
0	14187	3478.557015592927	1
0	14188	3479.485344047477	0
0	14199	3480.55061384569	1
0	14203	3482.490477231926	2
0	14205	3483.192873450088	1
0	14211	3484.01261940965	0
0	14217	3484.16280131477	1
0	14219	3486.300003335241	0
0	14228	3486.903129474084	1
0	14230	3487.070422228822	2
0	14232	3488.295185897477	1
0	14237	3488.6534895449	0
0	14258	3489.767972305562	1
0	14260	3491.021137057374	0
0	14271	3492.409342703583	1
0	14273	3493.191066940745	0
0	14303	3501.128952195808	1
0	14306	3502.340356480252	0
0	14337	3510.363051672029	1
0	14340	3512.097863332895	0
0	14346	3513.783043753516	1
0	14348	3513.980087903274	0
0	14354	3514.424489575664	1
0	14355	3514.862517056857	0
0	14373	3520.79814750854	1
0	14377	3522.249472930557	2
0	14379	3523.468504155133	1
0	14385	3524.740725609823	0
0	14407	3529.376064684148	1
0	14411	3529.854744695211	2
0	14412	3530.548280876037	1
0	14418	3531.07164751091	0
0	14424	3531.082590064061	1
0	14425	3532.374638669098	0
0	14442	3538.482822645152	1
0	14444	3539.516134101185	2
0	14445	3539.953174491415	1
0	14452	3540.296247732087	2
0	14453	3540.315589002485	1
0	14458	3540.689237065344	0
0	14478	3546.413980054189	1
0	14482	3546.530009810024	2
0	14485	3547.771101600864	1
0	14490	3548.072983348337	0
0	14502	3549.964496283068	1
0	14505	3553.455414187555	0
0	14516	3555.857491806341	1
0	14518	3557.487836860156	0
0	14535	3560.70800331979	1
0	14536	3561.824934251819	0
0	14542	3562.107350522769	1
0	14544	3563.486345496896	0
0	14550	3563.54872344661	1
0	14551	3564.225736484624	0
0	14564	3565.928346667257	1
0	14566	3566.42981452848	0
0	14577	3566.707103010076	1
0	14578	3567.763916583665	0
0	14594	3572.517050594516	1
0	14597	3573.538395530859	0
0	14640	3587.762917434948	1
0	14641	3588.565453032013	0
0	14660	3590.219085101251	1
0	14661	3591.178105917461	0
0	14675	3595.240076244902	1
0	14677	3596.476213964985	2
0	14678	3597.644953142181	1
0	14685	3598.826401545945	0
0	14694	3599.416521502394	1
0	14696	3602.026993922503	2
0	14701	3602.936794154449	1
0	14705	3603.613219706138	2
0	14708	3607.011111888255	1
0	14713	3607.688480731089	0
0	14720	3611.923701127742	1
0	14725	3613.577510181999	0
0	14795	3640.889383238082	1
0	14797	3641.070629201688	2
0	14799	3642.059177998025	3
0	14801	3643.391105635989	4
0	14803	3645.709436908944	5
0	14805	3646.156730504524	6
0	14809	3648.232948828528	7
0	14810	3649.097785842104	6
0	14816	3650.400476154354	7
0	14819	3651.355857567548	8
0	14820	3651.418533658714	7
0	14829	3652.399448169432	8
0	14835	3656.055212287295	9
0	14836	3656.295358406632	8
0	14842	3656.343418259314	9
0	14846	3657.031809444288	8
0	14851	3657.076325312018	7
0	14856	3657.388577952517	6
0	14861	3658.655081738789	5
0	14865	3659.749492754295	6
0	14868	3662.61590671246	5
0	14874	3663.01465960766	6
0	14878	3663.917127091182	5
0	14883	3664.726831750943	4
0	14887	3665.31130862059	5
0	14895	3667.040329704449	6
0	14896	3667.216991810932	5
0	14902	3667.278209880225	4
0	14909	3669.198174116781	3
0	14914	3670.113283588977	2
0	14922	3673.015737833761	3
0	14924	3673.745268612104	4
0	14925	3674.2193487142	3
0	14932	3674.69890839886	4
0	14933	3675.65688851688	3
0	14938	3675.720057061741	2
0	14943	3676.084749654523	1
0	14947	3676.101046112694	2
0	14953	3678.663686057014	1
0	14959	3680.556876928618	0
0	14976	3682.117354690802	1
0	14978	3683.171859712738	0
0	14995	3691.966442079538	1
0	15000	3694.574440191241	0
0	15009	3695.946617190352	1
0	15011	3696.831504723617	2
0	15013	3697.466070227056	3
0	15017	3698.49568243477	4
0	15020	3699.958164134273	3
0	15026	3700.174179105752	4
0	15027	3700.829187580518	3
0	15031	3701.205603905631	4
0	15036	3703.152044981329	3
0	15042	3703.985337829541	4
0	15045	3705.048560266707	3
0	15049	3705.61390237133	4
0	15051	3705.97389048951	5
0	15059	3707.549162282915	4
0	15065	3707.799410263356	5
0	15067	3712.618733358686	4
0	15076	3713.344490566843	5
0	15078	3714.010262794053	4
0	15085	3715.039683696279	3
0	15090	3715.272888203221	2
0	15095	3718.353059321108	1
0	15101	3720.37028106464	2
0	15103	3721.097204894424	1
0	15109	3721.699848776698	2
0	15111	3723.546413772267	1
0	15116	3724.171488217977	0
0	15120	3724.915604951879	1
0	15122	3729.5050140882	2
0	15125	3730.562082395789	1
0	15129	3730.861636306052	2
0	15133	3731.911459015265	3
0	15136	3733.182502294105	2
0	15140	3733.892858106333	3
0	15143	3734.588721868505	2
0	15150	3736.36755853107	3
0	15152	3737.745791403305	2
0	15157	3738.575545361698	1
0	15163	3739.33284666752	2
0	15166	3740.034252935107	1
0	15170	3742.895212477962	2
0	15172	3743.011843038289	3
0	15177	3745.176287293107	2
0	15183	3746.310849563167	3
0	15184	3747.46856615409	2
0	15189	3750.268483884931	1
0	15198	3751.545117272151	0
0	15226	3757.725281886997	1
0	15229	3760.531299884129	0
0	15233	3760.933683265531	1
0	15240	3762.953832264842	0
0	15256	3765.936152066738	1
0	15257	3768.090461171063	0
0	15274	3777.761363519596	1
0	15277	3778.442840034739	0
0	15286	3779.204437837031	1
0	15290	3782.423654665705	2
0	15291	3783.019595202124	1
0	15296	3783.273663302791	0
0	15309	3785.597549980375	1
0	15312	3787.324934042853	0
0	15340	3793.03668945193	1
0	15341	3794.114183893921	0
0	15351	3794.97672730731	1
0	15354	3796.755056540774	0
0	15395	3811.948306966796	1
0	15401	3813.75091520902	2
0	15403	3816.095462649705	3
0	15408	3818.312152029853	2
0	15414	3819.45999503575	3
0	15418	3820.37053219081	2
0	15425	3820.934757940088	3
0	15426	3821.243652966681	2
0	15432	3821.630203330021	3
0	15435	3822.217544932052	4
0	15436	3823.885480695102	3
0	15443	3824.466199528318	4
0	15444	3825.728293575936	3
0	15450	3826.400178864113	4
0	15451	3826.669475430257	3
0	15456	3826.941074162746	2
0	15461	3828.345270269742	1
0	15469	3828.655982787862	2
0	15470	3828.970481997139	1
0	15476	3829.317222682541	2
0	15480	3829.948907224203	1
0	15486	3830.485645852634	2
0	15490	3832.277583799763	3
0	15491	3832.554412348994	2
0	15496	3832.684290907921	1
0	15502	3832.811027762993	2
0	15503	3833.836328619843	1
0	15510	3834.830712766775	2
0	15513	3837.195567858491	3
0	15514	3837.437509874869	2
0	15519	3837.600151836662	1
0	15528	3838.338168327285	2
0	15529	3839.034335832732	1
0	15537	3839.471639956981	2
0	15540	3842.667162906714	1
0	15545	3843.540889404431	0
0	15577	3851.584119381225	1
0	15581	3853.078023508415	0
0	15605	3860.908268620076	1
0	15606	3861.504786048329	0
0	15621	3864.29944808514	1
0	15622	3864.531744857705	0
0	15634	3865.936300441798	1
0	15635	3866.223238079356	0
0	15669	3871.560174230957	1
0	15672	3875.684059795927	0
0	15683	3876.754173585708	1
0	15685	3877.224694923735	2
0	15689	3879.656172302664	3
0	15691	3879.910729391299	4
0	15694	3880.573787580805	3
0	15699	3882.375316667586	2
0	15705	3884.895488653478	1
0	15711	3885.401775312718	0
0	15726	3887.189091462361	1
0	15728	3887.631711958497	2
0	15729	3888.395754589794	1
0	15735	3888.549180588834	2
0	15741	3891.290417583371	3
0	15742	3891.337459852512	2
0	15748	3891.551930971677	3
0	15749	3892.163544908353	2
0	15754	3892.212556020588	1
0	15758	3892.45013081051	2
0	15763	3892.955402946226	1
0	15769	3894.056318177195	2
0	15776	3896.973066734803	1
0	15782	3897.956188240423	0
0	15788	3898.8819319086	1
0	15790	3899.404757961837	2
0	15792	3899.629980705977	3
0	15796	3901.378395953343	4
0	15798	3903.978376563689	5
0	15799	3904.194161287247	4
0	15807	3905.446922574761	5
0	15809	3905.590762549516	6
0	15812	3906.160812399708	5
0	15817	3908.55068238745	4
0	15825	3909.793464579242	5
0	15827	3910.782276543404	6
0	15828	3910.909496471222	5
0	15834	3911.880486121997	4
0	15839	3912.070236748047	3
0	15844	3912.392282668428	2
0	15848	3912.869061049341	3
0	15850	3913.802589430789	4
0	15856	3915.294114907484	3
0	15861	3915.391606166586	2
0	15865	3915.899857399935	3
0	15867	3917.169625726442	4
0	15869	3917.70607088025	5
0	15871	3918.375179583185	6
0	15875	3918.818627776793	5
0	15880	3919.243277095519	4
0	15887	3921.996581485434	3
0	15891	3923.049598750171	4
0	15894	3923.515048440783	3
0	15900	3924.767621908262	2
0	15906	3924.878045500934	3
0	15908	3926.12551643397	4
0	15909	3926.493039566846	3
0	15916	3928.667243489731	4
0	15917	3928.715321262144	3
0	15924	3929.52612381529	2
0	15932	3931.741370858821	3
0	15933	3932.09856963923	2
0	15938	3933.02638679509	1
0	15946	3937.103214818883	2
0	15948	3937.640241505284	3
0	15951	3940.024494605398	2
0	15955	3940.823507885784	3
0	15959	3942.829260937595	4
0	15962	3944.232713683529	3
0	15967	3945.478908124329	2
0	15973	3947.672028572011	3
0	15975	3948.136790627832	2
0	15982	3948.843396302176	1
0	15990	3950.141078017659	0
0	15996	3950.801611624967	1
0	15999	3952.317454425665	0
0	16012	3953.705126275337	1
0	16014	3953.822805137411	2
0	16016	3955.759023017072	3
0	16017	3956.313133810905	2
0	16023	3956.822250525706	1
0	16028	3957.208486669248	0
0	16045	3959.512688816769	1
0	16049	3961.149389724511	0
0	16075	3965.427758418698	1
0	16079	3968.031639839725	2
0	16082	3971.540621505778	1
0	16088	3972.903214309728	2
0	16089	3972.978633139472	1
0	16094	3973.157793988463	0
0	16118	3978.707872045174	1
0	16124	3980.039202091245	2
0	16126	3980.216448958583	3
0	16127	3980.372327768471	2
0	16132	3981.085135618812	1
0	16139	3982.499862774651	0
0	16149	3984.047899066508	1
0	16153	3985.979173192025	0
0	16161	3987.941037912494	1
0	16162	3988.4287260909	0
0	16181	3989.056271046069	1
0	16182	3991.35429048807	0
0	16209	4004.968098374328	1
0	16216	4006.191561188016	0
0	16245	4013.895671638817	1
0	16247	4014.539353668954	2
0	16248	4014.641584032804	1
0	16253	4014.646690103282	0
0	16259	4014.736845998596	1
0	16260	4015.31961789315	0
0	16293	4021.969016116981	1
0	16294	4023.041528064099	0
0	16306	4026.310400724873	1
0	16307	4026.419756010423	0
0	16321	4028.775665011951	1
0	16333	4036.630891511642	0
0	16339	4036.751711315494	1
0	16341	4039.833931377767	0
0	16347	4040.123670256663	1
0	16351	4040.540693480172	2
0	16352	4040.784347489853	1
0	16357	4042.46030153146	0
0	16384	4046.97631865751	1
0	16387	4048.047710736892	0
0	16405	4055.483731580399	1
0	16408	4056.75769841943	0
0	16440	4062.113148426662	1
0	16441	4062.302184375942	0
0	16454	4065.417638089678	1
0	16455	4065.446305326993	0
0	16466	4067.487830301821	1
0	16467	4068.106136636528	0
0	16502	4074.964292306378	1
0	16505	4076.724575200582	0
0	16517	4078.683837883599	1
0	16523	4079.7929999102	0
0	16529	4080.01682007239	1
0	16533	4080.554592610175	2
0	16535	4081.262302334249	1
0	16540	4081.627054950082	0
0	16590	4088.953938829355	1
0	16592	4090.680274147248	0
0	16599	4091.383730149802	1
0	16601	4092.721210971889	2
0	16603	4092.793057216611	3
0	16604	4093.01397398512	2
0	16609	4094.610512941427	1
0	16615	4095.385123738805	0
0	16631	4098.657461147297	1
0	16635	4099.101090977689	2
0	16636	4099.351565009298	1
0	16640	4101.503768546822	2
0	16642	4102.098414453811	3
0	16644	4102.656971218789	4
0	16649	4103.695961937454	3
0	16658	4104.842961016635	4
0	16659	4106.078329958572	3
0	16664	4106.758070547509	2
0	16670	4107.759956894278	3
0	16673	4108.956234955581	4
0	16674	4109.327404257512	3
0	16684	4110.492916798176	4
0	16686	4111.169562320948	3
0	16692	4111.207029982617	4
0	16696	4111.543903525346	5
0	16698	4111.580526950225	6
0	16699	4112.031648560177	5
0	16705	4112.53074575098	4
0	16712	4113.53531531306	5
0	16713	4114.577408897396	4
0	16719	4114.659478203271	3
0	16724	4115.387042479454	2
0	16729	4116.220787645386	1
0	16735	4116.770072913456	2
0	16736	4116.905570642191	1
0	16742	4119.739061425888	0
0	16757	4125.221148102679	1
0	16762	4127.645978214266	0
0	16788	4133.324415908985	1
0	16789	4133.834563443561	0
0	16814	4141.758448668167	1
0	16817	4143.444624522251	0
0	16823	4143.449898895913	1
0	16825	4143.815242015244	0
0	16858	4154.505332365465	1
0	16860	4154.669321127796	2
0	16866	4155.502681262743	3
0	16869	4159.171950631853	2
0	16875	4161.113394899488	1
0	16882	4162.57240572496	0
0	16898	4168.25935313886	1
0	16899	4168.973621138881	0
0	16905	4174.622258248496	1
0	16908	4174.955611841096	0
0	16929	4176.976491279378	1
0	16932	4177.834508383428	2
0	16933	4178.497310811285	1
0	16938	4178.879400711457	0
0	16961	4184.702269068771	1
0	16962	4184.79805161331	0
0	16983	4189.51472313752	1
0	16988	4191.85192694288	0
0	17005	4193.300966965882	1
0	17007	4193.324849897653	2
0	17009	4193.507875380917	3
0	17010	4193.656098861331	2
0	17016	4196.134345138323	1
0	17022	4196.762209017924	0
0	17068	4206.918078986112	1
0	17071	4208.515829982756	2
0	17072	4208.596118591031	1
0	17077	4209.236528355257	0
0	17086	4209.456069442102	1
0	17087	4209.484541569476	0
0	17094	4210.009627242501	1
0	17096	4210.426788004975	2
0	17097	4210.825095015491	1
0	17104	4211.430556722257	0
0	17166	4234.804986563934	1
0	17170	4240.384335210341	2
0	17172	4242.187052864875	3
0	17174	4242.591287299756	4
0	17178	4245.843860764306	5
0	17181	4246.908074250559	4
0	17192	4247.529289600773	3
0	17198	4247.552873132383	4
0	17200	4247.863171751881	5
0	17203	4248.164291287654	4
0	17208	4250.348977006808	3
0	17215	4250.708588435859	2
0	17223	4252.16657205201	3
0	17225	4252.773801006386	2
0	17230	4253.451827560382	1
0	17238	4255.142677051734	2
0	17239	4255.375121479088	1
0	17244	4256.482177993021	0
0	17248	4256.529546801347	1
0	17250	4256.620737843052	2
0	17252	4256.710982038846	3
0	17257	4258.873816004206	2
0	17263	4260.070850928287	3
0	17264	4260.461909995042	2
0	17268	4260.742334437841	3
0	17270	4261.073142040227	4
0	17279	4264.831884891873	3
0	17285	4267.338437300233	4
0	17287	4269.889101118083	5
0	17290	4271.054358835325	4
0	17295	4271.866625897629	3
0	17299	4273.657960444409	4
0	17303	4277.038195386034	5
0	17306	4277.660310885858	4
0	17312	4278.114535749928	5
0	17314	4278.121872375948	6
0	17315	4278.184111630901	5
0	17323	4279.188079699274	6
0	17324	4279.918781218415	5
0	17329	4282.486582826956	4
0	17338	4285.133171256595	3
0	17343	4285.540073137	2
0	17349	4285.55271481062	3
0	17351	4289.232573103521	2
0	17356	4289.289381755791	1
0	17362	4291.62829041704	2
0	17363	4291.705352185659	1
0	17369	4292.063816933501	2
0	17370	4292.13420729692	1
0	17374	4293.83535519224	2
0	17381	4297.815750848696	1
0	17385	4300.452941535373	2
0	17389	4302.704832258877	3
0	17391	4302.917413491333	2
0	17396	4303.056002369572	1
0	17400	4303.605133286717	2
0	17403	4304.245580738722	1
0	17409	4304.770575278567	0
0	17443	4315.143501183447	1
0	17444	4315.357583069089	0
0	17453	4318.224049882504	1
0	17455	4318.797010421149	2
0	17462	4320.128011564424	1
0	17468	4320.531304583118	0
0	17474	4321.678313723493	1
0	17475	4323.440897506576	0
0	17504	4326.295815703324	1
0	17505	4329.484831678734	0
0	17512	4330.971969098536	1
0	17514	4331.231635080517	2
0	17515	4331.586104025581	1
0	17521	4332.196363814101	0
0	17539	4334.170397021435	1
0	17541	4335.061876964528	2
0	17542	4337.461489258896	1
0	17549	4338.444240822156	0
0	17579	4346.837576248375	1
0	17580	4346.981864712074	0
0	17587	4348.500415791414	1
0	17588	4349.241229566417	0
0	17604	4350.021789857263	1
0	17608	4350.53722248059	2
0	17609	4350.598891767891	1
0	17614	4353.042119626252	0
0	17623	4354.74134486275	1
0	17624	4355.092303087585	0
0	17653	4361.820236350811	1
0	17654	4362.936297955338	0
0	17660	4363.802748069612	1
0	17661	4363.854678388438	0
0	17670	4366.892970740022	1
0	17674	4368.203502061396	2
0	17675	4368.480705837764	1
0	17681	4369.167536094927	0
0	17697	4375.230271536975	1
0	17699	4375.812247339137	2
0	17700	4377.351684850767	1
0	17706	4377.779029607434	2
0	17707	4378.053997139978	1
0	17712	4378.390884392374	0
0	17716	4378.640757832832	1
0	17718	4379.55207275098	2
0	17720	4379.628285653053	3
0	17724	4380.021562033884	4
0	17725	4380.134049621037	3
0	17729	4380.421592414911	4
0	17731	4380.808845931709	5
0	17733	4382.42920447594	6
0	17735	4383.152025478581	7
0	17741	4385.279185973327	6
0	17747	4385.525796287614	7
0	17750	4385.855814809508	8
0	17752	4386.332993426735	7
0	17757	4387.691113107742	6
0	17762	4388.913465308555	5
0	17773	4392.10247596523	4
0	17779	4392.866174447128	3
0	17785	4394.769227481335	2
0	17792	4395.418767359329	1
0	17797	4395.908881306997	0
0	17804	4400.701756782992	1
0	17805	4401.332219906544	0
0	17858	4411.351631431615	1
0	17862	4413.683928108029	0
0	17868	4414.12494076107	1
0	17869	4414.526241402331	0
0	17875	4414.666046131	1
0	17877	4414.929586011815	2
0	17879	4415.49303587388	1
0	17884	4415.603161282299	0
0	17896	4419.907104903276	1
0	17897	4420.194849359278	0
0	17915	4425.432078667378	1
0	17918	4429.991836929094	0
0	17934	4431.10770512109	1
0	17936	4431.335470222827	2
0	17937	4431.39988580535	1
0	17943	4431.441544002959	2
0	17944	4432.764627578673	1
0	17948	4432.845690184432	2
0	17954	4434.95152842136	3
0	17955	4435.04320715055	2
0	17960	4435.233083476303	1
0	17965	4436.901747920918	0
0	17971	4437.245917168767	1
0	17972	4438.969553775043	0
0	17980	4441.172502651093	1
0	17985	4442.683603885172	0
0	17991	4442.928327872711	1
0	17992	4443.783163567272	0
0	18027	4447.687191406726	1
0	18029	4447.704502970811	2
0	18033	4448.447635987609	3
0	18034	4449.481744903454	2
0	18040	4450.167304323523	1
0	18046	4451.105204847032	0
0	18097	4471.1050728875	1
0	18098	4471.459872801566	0
0	18110	4472.708845436768	1
0	18113	4473.136857754357	2
0	18117	4474.611382585396	3
0	18121	4476.615485868452	4
0	18122	4476.982769392895	3
0	18129	4478.127787548098	4
0	18131	4478.457417693622	5
0	18132	4479.750587369981	4
0	18137	4480.025174417996	3
0	18143	4480.28425788861	4
0	18144	4480.442611016519	3
0	18148	4480.871319350905	4
0	18150	4482.36214975267	5
0	18153	4483.147509005948	4
0	18157	4483.347214915311	5
0	18159	4483.881601853397	6
0	18161	4484.506398567842	7
0	18166	4486.941711133385	6
0	18175	4489.113633790164	5
0	18180	4489.204528816852	4
0	18185	4489.297894730164	3
0	18194	4491.770405586146	2
0	18200	4491.844133010536	3
0	18202	4492.100413682914	2
0	18207	4493.08225296865	1
0	18212	4493.968260768939	0
0	18228	4497.212175992864	1
0	18230	4497.76532190981	2
0	18234	4498.443378193904	3
0	18235	4498.489127149348	2
0	18241	4498.52969458582	3
0	18242	4498.694118561688	2
0	18247	4499.325536279671	1
0	18252	4500.72520027821	0
0	18270	4501.922409060376	1
0	18271	4502.047967355719	0
0	18290	4512.474205676499	1
0	18292	4513.005827899725	2
0	18295	4514.475078916331	1
0	18301	4514.574343969888	2
0	18302	4514.598135309788	1
0	18309	4515.712187981821	0
0	18333	4525.51405016685	1
0	18334	4526.249151556083	0
0	18350	4531.039075381813	1
0	18352	4531.466096757019	2
0	18353	4533.045864547344	1
0	18364	4538.992304002365	0
0	18387	4544.568289578272	1
0	18388	4544.871587455854	0
0	18400	4548.092777264313	1
0	18402	4548.748643280889	2
0	18403	4549.860246118174	1
0	18408	4550.044702384084	0
0	18429	4557.404984524957	1
0	18431	4557.438291220011	2
0	18438	4559.616625331815	1
0	18443	4560.112875547083	0
0	18503	4578.850972051614	1
0	18506	4579.780875150836	0
0	18517	4581.386066040588	1
0	18519	4582.189769946848	2
0	18521	4583.510848255069	3
0	18523	4584.638461129824	4
0	18527	4585.863683383606	5
0	18528	4586.518461165312	4
0	18533	4586.623527468869	3
0	18544	4587.219260399828	4
0	18545	4587.293365861117	3
0	18550	4587.738862153999	2
0	18557	4588.81356233197	1
0	18564	4589.926164720704	0
0	18573	4590.708821489735	1
0	18579	4592.650772101203	0
0	18585	4592.774448879642	1
0	18588	4593.174434716762	2
0	18590	4593.456333707954	3
0	18592	4593.752588787197	4
0	18595	4594.368098086624	3
0	18600	4594.533795744225	2
0	18606	4596.130110473791	1
0	18612	4596.538375985171	2
0	18613	4597.618896785437	1
0	18620	4599.48128012272	2
0	18621	4599.840536153032	1
0	18626	4600.041035152168	0
0	18637	4600.855834824939	1
0	18639	4602.038618847898	2
0	18641	4602.300612680184	3
0	18643	4602.565019898024	4
0	18644	4602.800707700995	3
0	18653	4606.394974132787	2
0	18657	4608.039744067243	3
0	18659	4609.93003855506	4
0	18663	4612.09057466669	3
0	18668	4612.213288318663	2
0	18675	4613.323563262669	3
0	18676	4613.340654698303	2
0	18686	4616.693634734516	3
0	18687	4617.452194845485	2
0	18693	4617.975667480414	1
0	18698	4618.366519133717	0
0	18713	4620.6603896992	1
0	18715	4621.320369830072	2
0	18716	4621.486482407703	1
0	18721	4622.331369280729	0
0	18733	4623.047353465472	1
0	18735	4623.964671517131	2
0	18739	4625.586526185168	1
0	18747	4627.151625390794	2
0	18748	4627.181131932673	1
0	18755	4627.789239471851	2
0	18756	4627.988539025604	1
0	18761	4628.329725704863	0
0	18767	4629.443760796432	1
0	18771	4632.318836688143	2
0	18776	4636.925805949	1
0	18782	4639.061395867629	0
0	18843	4646.274219775194	1
0	18845	4647.02584996219	2
0	18846	4647.317986319454	1
0	18851	4647.772717981592	0
0	18872	4654.415936170817	1
0	18873	4656.588613494385	0
0	18879	4656.733329341945	1
0	18880	4656.851724246626	0
0	18891	4657.605103008901	1
0	18896	4659.415861023552	0
0	18966	4675.267922545913	1
0	18968	4675.287274363801	2
0	18970	4676.103725648666	1
0	18976	4676.992725725376	2
0	18978	4677.823038369478	3
0	18979	4678.731571610386	2
0	18984	4680.485302494999	1
0	18989	4680.628994318783	0
0	18993	4681.051671672564	1
0	18996	4682.813460753716	0
0	19014	4686.215603877635	1
0	19016	4686.976832932842	2
0	19024	4691.872956791482	1
0	19029	4692.781035953479	0
0	19040	4694.225645637196	1
0	19041	4694.357134455424	0
0	19045	4694.526650231723	1
0	19051	4696.039239166815	0
0	19065	4698.229124480674	1
0	19066	4701.087081475648	0
0	19077	4703.117099886618	1
0	19080	4703.843966348543	2
0	19083	4704.933275087034	3
0	19084	4705.339832521945	2
0	19089	4705.867996981249	1
0	19095	4706.760213284489	0
0	19103	4709.064148121469	1
0	19105	4709.26650137116	2
0	19106	4713.180755468233	1
0	19111	4713.407320273644	0
0	19138	4726.281556279049	1
0	19139	4727.228901035764	0
0	19145	4728.268542653816	1
0	19146	4728.424758016991	0
0	19150	4730.83092317063	1
0	19152	4731.827936422097	2
0	19154	4733.423159116693	3
0	19158	4736.521411842451	4
0	19162	4739.890855050167	5
0	19163	4740.141119605056	4
0	19167	4740.389988172735	5
0	19173	4742.53726728917	4
0	19179	4743.22070036024	3
0	19192	4745.301918976468	4
0	19194	4745.709230242401	5
0	19195	4745.741572530183	4
0	19201	4746.842538754567	3
0	19207	4746.954690820471	4
0	19210	4748.580751885351	5
0	19211	4749.485752089648	4
0	19216	4749.578800107433	3
0	19222	4750.230308632891	2
0	19227	4751.624858919807	1
0	19231	4751.811173998826	2
0	19235	4752.092975221829	3
0	19236	4752.855364831277	2
0	19242	4754.115024667928	1
0	19251	4760.050076513705	0
0	19271	4763.827051715507	1
0	19275	4766.709560851614	2
0	19279	4767.148235033167	3
0	19280	4767.290661781402	2
0	19285	4767.351528473379	1
0	19290	4767.416459784906	0
0	19294	4767.843233894748	1
0	19297	4769.197110115438	0
0	19316	4776.542525481718	1
0	19327	4780.947742098984	0
0	19337	4782.236200080803	1
0	19340	4782.843536229856	0
0	19358	4786.962675938247	1
0	19361	4788.663527130124	0
0	19370	4789.926550182359	1
0	19375	4790.311622005619	0
0	19382	4790.927382314417	1
0	19390	4792.776915633184	0
0	19402	4793.119668283844	1
0	19406	4795.812099037474	0
0	19412	4796.639462143837	1
0	19413	4796.917952842476	0
0	19419	4797.090107297554	1
0	19420	4797.377383092406	0
0	19470	4807.314422489711	1
0	19473	4807.650775890328	0
0	19484	4808.793400174236	1
0	19487	4809.725624108162	0
0	19493	4810.044549365935	1
0	19496	4810.730453492152	2
0	19498	4811.45969293366	3
0	19499	4812.710869685745	2
0	19506	4814.043142631907	3
0	19507	4814.883888691982	2
0	19516	4815.433082595361	1
0	19522	4815.717836111554	2
0	19523	4816.531777662389	1
0	19530	4817.842030406915	0
0	19534	4819.577252318164	1
0	19537	4820.100077530432	0
0	19543	4820.969171366317	1
0	19545	4821.009248936236	2
0	19546	4821.567204598262	1
0	19550	4821.941167617067	2
0	19554	4822.700627550988	1
0	19560	4824.103130099529	2
0	19564	4825.717144570265	1
0	19570	4825.909690929397	2
0	19571	4826.054335493498	1
0	19577	4826.983831425014	0
0	19608	4832.08675801302	1
0	19610	4832.878700349641	2
0	19612	4833.47087189759	3
0	19614	4833.947235634056	4
0	19615	4834.345622241071	3
0	19620	4834.9043567828	2
0	19626	4835.763304511638	3
0	19629	4838.332725337036	2
0	19635	4839.175810180353	1
0	19640	4839.259885120814	0
0	19651	4840.225645817476	1
0	19653	4841.396563453026	0
0	19660	4842.198968432128	1
0	19661	4842.50367225395	0
0	19691	4845.219679916209	1
0	19698	4850.309865295906	0
0	19707	4850.799434721488	1
0	19711	4851.312754250125	2
0	19715	4853.256267730582	1
0	19721	4853.867535780593	0
0	19733	4854.123974987393	1
0	19734	4854.349565284624	0
0	19741	4854.979267421261	1
0	19743	4855.063110481476	2
[...]
5	116222	28641.586953257846	7.124903354084
5	116238	28646.991640906724	11.926572231685
5	116243	28647.637469918643	9.292559214041
5	116249	28648.365514304317	8.740155225028
5	116258	28654.558122319673	14.877249402551
5	116263	28655.265328280839	13.924070183723
5	116268	28656.10030215754	11.573257480593
5	116279	28658.336788322029	12.852050820621
5	116296	28664.435076339982	18.596518219921
5	116303	28665.114012500039	19.1270206247
5	116310	28668.390354905894	19.54860567052
5	116329	28673.908653960264	17.225659761426
5	116335	28676.244121681629	19.555475386057
5	116340	28676.444998217374	19.210391341539
5	116348	28679.691301228792	21.285135050435
5	116353	28679.70929572834	20.127236740927
5	116360	28681.498147186136	21.905454530182
5	116366	28682.181633474958	21.50709334803
5	116371	28683.380561521304	19.197563959494
5	116376	28684.433990881348	17.085607587222
5	116387	28688.91900610222	20.038872912916
5	116396	28690.657390041001	21.566733969404
5	116402	28692.357610752518	23.150329576394
5	116411	28693.990988534598	22.713335728522
5	116416	28695.505319895022	23.624155191852
5	116431	28701.164126473696	23.536942310079
5	116439	28702.410185910452	9.224591426544
5	116444	28702.761468086582	9.470145339327
5	116449	28703.087436420197	5.631059743159
5	116464	28708.075525709178	9.309172797758
5	116471	28709.228843107765	7.998732850645
5	116476	28709.262820074635	5.848457119416
5	116483	28709.587629897442	4.400299288066
5	116497	28712.823490285594	6.005207902131
5	116502	28712.847515733315	2.585276172103
5	116507	28714.28605073776	1.591682038927
5	116542	28721.622949863377	1.792234790064
5	116571	28726.550473107644	3.099482272781
5	116577	28727.853340620711	1.518201654573
5	116590	28730.472028454738	0.887853062951
5	116611	28735.617390377279	3.521373214925
5	116623	28738.75151460014	5.836533959293
5	116628	28738.998694479627	3.97800257698
5	116633	28739.197230193898	3.563568324785
5	116647	28742.527908742598	5.430341014335
5	116656	28742.803312828014	2.871227416578
5	116661	28742.938461646829	2.665682943666
5	116666	28745.486088170617	4.052489461892
5	116677	28750.301143968237	7.668714818285
5	116706	28755.680052168098	1.29459743051
5	116722	28758.965033079976	4.151487935618
5	116727	28759.013292863825	4.050417071743
5	116739	28762.433775968126	6.47074189118
5	116745	28763.30207867168	6.906690177162
5	116750	28763.700010963448	7.115805143553
5	116755	28763.716799431699	6.021777354158
5	116779	28768.508929864184	3.852754464674
5	116785	28769.532778921818	2.593349063146
5	116817	28775.342191237196	2.131123465206
5	116835	28777.563436491814	1.858282466137
5	116867	28784.098062143854	4.341644758149
5	116873	28784.951967675746	2.972363285491
5	116904	28795.415843394608	0.983803805039
5	116919	28800.244831970084	3.94222901712
5	116929	28802.072440044446	5.727421225333
5	116934	28803.604539146934	2.464972019486
5	116962	28809.029976407673	2.189068906913
5	116990	28820.223252335528	4.190499604286
5	116995	28821.019503099851	4.831446364909
5	117026	28826.924110596192	4.508931362148
5	117032	28828.081108155266	3.047486551872
5	117038	28829.271628856539	3.399538167157
5	117062	28834.157044859354	0.915198569948
5	117082	28840.878406905113	5.539544522284
5	117087	28841.154760899559	4.315614909798
5	117101	28845.637429436955	2.642626414334
5	117130	28848.55342322763	1.234013616695
5	117137	28848.746983669961	0.028379337038
5	117155	28856.430808233975	0.312061967051
5	117177	28864.451132290014	2.953935451888
5	117182	28864.617760740037	2.46051045637
5	117200	28869.518849196827	4.833013402324
5	117205	28871.110119477861	1.898592915206
5	117254	28883.886223435708	1.939417852022
5	117259	28885.626443895103	2.543135042995
5	117268	28887.477655223223	4.044910552626
5	117277	28888.406288990946	2.612345051929
5	117286	28890.162346513338	4.142561407597
5	117292	28892.345415527296	4.597938083322
5	117298	28892.941296157575	3.473713596953
5	117316	28894.092290766737	0.856811788122
5	117321	28894.225076700904	0.855768388944
5	117328	28895.213081463038	1.694076047927
5	117335	28898.663139317831	3.810763428617
5	117342	28899.96001734335	3.421217694287
5	117353	28901.928026060823	3.118949093639
5	117358	28901.983376515028	0.519591509435
5	117382	28906.102058355393	2.804790783059
5	117388	28907.762066491467	3.156954635951
5	117404	28914.984542008401	2.512812815924
5	117415	28918.511788007526	4.336378988243
5	117423	28919.132262101362	4.047658809713
5	117429	28920.333754177171	1.776530023841
5	117457	28926.496043156217	0.86675632664
5	117478	28933.79873638844	5.000654090756
5	117482	28935.707670801675	1.945560165178
5	117495	28942.320812638862	2.272746872352
5	117499	28942.361025524981	2.17011886895
5	117506	28944.292377418094	0.140064702554
5	117514	28945.649973466238	0.140651114141
5	117522	28946.673219631209	0.746211687551
5	117549	28956.784376365602	2.561395237979
5	117562	28960.990608945707	2.355590759564
5	117589	28968.763541582737	4.794651622347
5	117648	28983.496149169628	4.752165643879
5	117668	28988.172005980272	3.810573100332
5	117673	28988.268433325119	3.334831454261
5	117686	28993.679706505868	8.417427494747
5	117694	28994.460719627918	7.489095106931
5	117702	28996.652445204702	8.822470838214
5	117713	28998.896655096585	9.26699891653
5	117721	29000.276720770946	8.224278887382
5	117730	29002.908363470537	9.324634602122
5	117744	29006.342765572796	11.971500802263
5	117749	29006.61293148226	8.828284971714
5	117756	29009.180410417601	10.761873513021
5	117761	29009.343023261286	10.346298806626
5	117770	29011.284166072121	9.42407150833
5	117775	29011.904964298642	8.321582497744
5	117782	29012.90502346007	9.131102304459
5	117794	29014.224380161012	3.591712569451
5	117801	29015.341039949412	3.314846071412
5	117806	29015.948572731108	2.268177270358
5	117819	29016.879989886332	0.856439640551
5	117839	29021.42891439309	2.848883834096
5	117844	29022.145919032332	1.167554011161
5	117864	29026.770377561893	3.758009339709
5	117869	29027.90785109585	3.494290823677
5	117897	29032.489809695312	2.272424370983
5	117903	29032.706147029104	1.883327086199
5	117920	29035.340958321515	0.76404289817
5	117939	29043.127838958884	4.516065719785
5	117954	29045.407484770883	6.257892965695
5	117959	29046.017534561331	2.994890685859
5	117966	29046.486819132886	2.497934531108
5	117989	29053.667742393824	6.248330761782
5	117994	29053.780666754267	6.278603635492
5	118003	29056.258414448397	7.4695267592
5	118013	29060.736912582261	8.375688991428
5	118019	29060.955232403618	7.857227637833
5	118024	29061.230271509098	6.933079116152
5	118040	29065.318796276767	4.794586712568
5	118049	29066.261470710655	2.983549336564
5	118056	29067.367054272534	3.936907211377
5	118061	29068.005680135775	4.315696150532
5	118072	29073.722851534081	8.483533175917
5	118079	29075.572460970626	9.122327795197
5	118086	29078.480559737975	10.055469912463
5	118091	29079.250097852748	10.462659051784
5	118103	29083.244896387758	10.842107381624
5	118110	29084.552420184041	9.45125150483
5	118120	29085.338638734728	2.546403429582
5	118125	29085.852739789815	2.769477334989
5	118130	29086.041591103175	0.831591103163
5	118160	29093.751998396738	4.136199870983
5	118170	29097.240424284068	6.964159189378
5	118176	29099.835888805785	5.433810783369
5	118208	29110.446588071952	8.832519667286
5	118213	29110.511013701476	8.191010912334
5	118220	29112.095058683032	4.884241682952
5	118235	29113.73269612171	1.295079915593
5	118249	29114.829814675585	1.053595228583
5	118267	29120.700218103865	4.370656171851
5	118274	29121.196891164797	2.180387313205
5	118280	29121.599009494035	1.955542989264
5	118297	29125.632719927083	1.52167277
5	118325	29130.139275348954	2.928643285546
5	118339	29133.561945564751	2.35402127386
5	118372	29142.119563775477	4.322672526347
5	118377	29142.526969690996	4.2963432954
5	118396	29145.971534827357	1.474503278866
5	118403	29148.120464040057	3.025064631767
5	118408	29148.158675942111	3.015175199481
5	118430	29150.366516082867	0.795173782084
5	118448	29153.808827477835	2.937707709776
5	118462	29155.543654519694	1.565027937314
5	118472	29157.57949129132	2.133376154754
5	118489	29162.032101033172	2.3381834646
5	118497	29164.531335615131	4.027924508592
5	118528	29169.35884992381	2.114280778718
5	118535	29172.306673213493	4.057704468025
5	118556	29176.288763615305	1.39385395505
5	118579	29188.993728272143	7.121308871097
5	118588	29192.132630277037	9.910310112863
5	118593	29194.006485384797	11.635157743254
5	118602	29195.363880253399	5.803926381441
5	118611	29196.343478535838	6.671929166246
5	118616	29200.211448073581	5.568350288818
5	118623	29201.568866164141	5.896184017945
5	118630	29203.71149271271	7.886017957212
5	118637	29206.792317090422	5.89893009009
5	118645	29209.047706372846	6.875258308086
5	118651	29210.104784182291	4.316935250601
5	118687	29225.475165042744	3.894765659922
5	118692	29225.859461671489	1.230055960391
5	118719	29237.887664299873	10.190846118282
5	118726	29239.123793805363	11.007910843667
5	118733	29240.143023161478	4.263891878397
5	118738	29240.99388603409	1.228045312718
5	118767	29247.191644779463	2.108199307108
5	118774	29247.892707652023	2.417107809825
5	118793	29252.382790394417	6.20280939191
5	118802	29254.050449265842	6.652194738177
5	118807	29254.253235523141	4.9808718063
5	118813	29255.54743932549	5.522617200075
5	118818	29256.715593401253	5.650674472957
5	118830	29258.006099928273	6.569776530284
5	118835	29258.060768576412	6.231923811329
5	118842	29259.208362428796	7.202917388955
5	118858	29262.726602507218	5.470851065977
5	118864	29263.281745169383	4.26223790226
5	118874	29266.602123499727	4.76319293416
5	118879	29267.908154195636	5.8554777663
5	118884	29268.519275826182	6.123441997409
5	118908	29273.759026206734	0.575573757573
5	118923	29276.995260264275	2.81369792246
5	118931	29277.597842141157	1.10706904603
5	118937	29278.846452095331	1.549046126887
5	118966	29284.101119474172	4.961670002303
5	118973	29285.141584881442	3.332444171633
5	118978	29285.42871710572	3.54731508265
5	118983	29287.58496515043	5.141261533551
5	119034	29302.576095036456	4.566722140626
5	119046	29305.609375393399	6.410956694664
5	119051	29306.591852196235	6.629373236073
5	119062	29311.859343231354	8.322593483755
5	119072	29316.15635837094	11.784297679304
5	119082	29317.486818769158	7.807952199119
5	119087	29317.923063553749	8.129361974776
5	119092	29319.461029309355	3.68978446425
5	119097	29321.875831712194	5.753750417645
5	119102	29321.999868845009	5.037218348781
5	119137	29325.468704827171	0.488270555022
5	119158	29335.181644444508	2.18272919653
5	119185	29341.306519415546	2.830394016439
5	119201	29342.730533433609	1.076053468539
5	119206	29342.952827278508	1.16254419564
5	119215	29343.65650175256	1.647706610421
5	119220	29344.342966834958	1.270046767871
5	119248	29352.778608545452	7.093585980542
5	119258	29354.971201993694	8.607619196313
5	119264	29356.260506149313	9.482546691638
5	119269	29356.387098871066	7.022149098643
5	119274	29356.894672226933	6.894049112373
5	119279	29357.839328261199	4.301801005224
5	119287	29358.408510594569	4.15545893094
5	119292	29359.083473290464	1.235685499155
5	119308	29363.334038641602	3.184031595122
5	119313	29363.479350874046	1.376134516203
5	119349	29370.800585821028	3.536160205648
5	119354	29371.416762362513	1.384166717443
5	119359	29374.851535931118	4.390473279157
5	119387	29383.350461342868	8.090975304225
5	119392	29383.489930240644	6.69701263301
5	119397	29383.523492999435	5.895474640558
5	119402	29384.717815046834	6.869128338488
5	119411	29386.581662100189	5.333283930453
5	119422	29387.752987071957	2.092644431206
5	119427	29388.909090587038	1.904362798111
5	119444	29393.627618534263	6.591045450336
5	119452	29394.959686829072	7.23074373441
5	119458	29395.747901900345	5.907755006162
5	119464	29396.831803553121	3.099390149597
5	119511	29411.300016004053	4.327435403508
5	119523	29413.322151417429	1.935833696881
5	119545	29418.430336747851	4.023454970121
5	119551	29418.718710222657	0.372542486138
5	119570	29423.714545665362	2.577812714885
5	119578	29424.522414307575	3.292526191292
5	119587	29426.766322393434	3.152318582486
5	119592	29428.114407834427	2.824333218482
5	119627	29431.948523915713	2.530831778734
5	119635	29433.424335005183	3.966280694155
5	119670	29443.390609347558	6.037990319178
5	119679	29445.061760454044	5.962053589711
5	119684	29445.075212332171	2.491472470071
5	119692	29446.080036386063	2.970475154644
5	119699	29446.263295050712	2.160849312641
5	119706	29447.933702672535	2.85123185926
5	119716	29453.425005201836	7.22703127827
5	119721	29453.768386245766	6.880696341343
5	119732	29456.395176569899	5.015244404597
5	119739	29457.049640550167	1.997579265462
5	119748	29459.092945303055	3.367348814285
5	119755	29460.311282726782	3.435664557455
5	119777	29468.495103111297	3.128260839307
5	119788	29470.030539224107	4.454915263201
5	119797	29471.931794147012	2.219738453156
5	119804	29474.861218918607	4.669909260165
5	119811	29477.198244251217	3.629042060396
5	119836	29484.42218718235	5.421730572445
5	119843	29485.639075831618	3.804363457493
5	119850	29487.767667778568	3.067525311913
5	119884	29499.829593108422	8.956948257703
5	119892	29502.589145909997	9.872016331253
5	119897	29504.050019899969	10.934765990099
5	119919	29509.068407116622	2.993651837488
5	119925	29509.265147795958	1.900543514466
5	119945	29513.482863114263	0.754993659578
5	119967	29519.187758863359	2.218762059525
5	119979	29522.698804525321	2.240528935491
5	119996	29525.26155182072	1.424951098832
5	120003	29526.012030783821	2.11757849031
5	120017	29529.549211295218	3.835293918523
5	120030	29533.023363214369	6.020555812438
5	120035	29533.052303843541	5.025064558376
5	120040	29533.530547371022	2.084608257675
5	120045	29535.172683072909	2.36159740008
5	120057	29536.87652575851	1.24834996942
5	120082	29539.670015844357	1.450729169175
5	120113	29548.411809097807	4.121433431093
5	120131	29552.132002537894	3.425608737349
5	120139	29553.964603383742	3.331445189245
5	120144	29554.576271257351	3.877076684156
5	120149	29555.334532009193	2.759673860603
5	120168	29560.625050089287	1.79222066809
5	120173	29561.226079431097	1.226755462445
5	120188	29563.913113412097	1.228619165892
5	120193	29565.935828957616	2.641488956868
5	120242	29584.256322730742	2.56426898329
5	120247	29585.911194788334	4.043834002104
5	120253	29586.531807392246	4.314875515249
5	120282	29594.890796487109	2.594829442743
5	120289	29595.833114917345	1.701863858174
5	120325	29603.565734381895	1.739342995462
5	120330	29603.664713402879	1.46661257142
5	120354	29609.204821511699	2.889645690751
5	120361	29609.360311555452	0.617094574078
5	120402	29621.940651892624	3.723316598204
5	120431	29637.047870829038	1.826175391298
5	120438	29637.291793799132	1.572654082027
5	120469	29648.63150990441	7.243734408441
5	120474	29649.12417456959	6.902868305225
5	120479	29650.256704911309	7.052558389149
5	120484	29651.401439335859	6.953120556194
5	120490	29653.46026782943	4.982746219782
5	120507	29656.798270001664	0.803180836862
5	120526	29657.849896484815	0.920702129081
5	120530	29658.412958356256	1.158298438452
5	120542	29661.845458040125	2.971073052377
5	120547	29663.840275341273	4.547226784399
5	120555	29665.574143398337	3.886140002578
5	120563	29667.066945721118	3.170416212808
5	120567	29667.480698207146	1.881863376294
5	120584	29672.850542401236	0.99900876504
5	120591	29674.197716698454	0.518120148178
5	120610	29677.910561728908	1.477278456996
5	120618	29678.948240562468	2.152484487202
5	120630	29681.751304798333	3.181870948352
5	120640	29687.94931794776	7.520764115887
5	120645	29688.134626655025	3.513397979967
5	120652	29688.756271362114	1.810648005148
5	120664	29691.75668451196	3.1278924347
5	120674	29693.529018238667	4.564159244586
5	120679	29694.557490562819	4.98055403852
5	120684	29694.830771047436	2.964345659898
5	120716	29701.986955287586	1.81241562025
5	120729	29704.862179452256	2.438635742342
5	120744	29708.565048462501	2.347827019295
5	120749	29708.692997542262	2.283393033892
5	120774	29715.016917522114	2.112568786084
5	120779	29715.527152537008	2.087134071605
5	120816	29722.476450400745	1.703919828896
5	120828	29725.002702122034	1.192769967931
5	120844	29727.93852377277	1.746463584612
5	120890	29737.701070820803	4.437428279607
5	120895	29737.767607871954	4.42037374143
5	120900	29739.082699275745	5.331474419235
5	120911	29741.658033814115	6.703600233149
5	120924	29744.365027020407	9.212017384264
5	120932	29745.306617542206	8.940525494186
5	120937	29746.530028039373	5.099145850052
5	120944	29747.186963656276	4.28780832243
5	120953	29750.823601620296	7.879912481029
5	120960	29752.708464353978	7.540275754535
5	120965	29753.819038474282	3.567676288974
5	120974	29756.501708260758	4.678682828262
5	120981	29757.445690889836	3.355234435381
5	120988	29758.933483695967	3.3624325508
5	120993	29760.989533952668	3.945186783471
5	121004	29767.775853601702	9.779046180455
5	121013	29769.474706209242	6.575720476581
5	121022	29771.731918556685	6.191508900592
5	121027	29771.765081295996	2.734586877895
5	121033	29772.104451184239	2.633775828652
5	121038	29772.52502745184	2.289269796811
5	121088	29787.518001661718	0.654017511757
5	121102	29793.51732061971	3.727883130869
5	121107	29793.926720234753	2.342198128044
5	121121	29795.921198153494	1.510555700038
5	121151	29808.666113051161	5.704605762419
5	121163	29810.279702740746	0.407085399797
5	121209	29818.379552744006	1.18768964554
5	121221	29822.94950294179	1.605936777318
5	121233	29825.34786131123	2.224148345547
5	121237	29825.657735745907	0.784527645379
5	121246	29826.886338186073	0.459878311014
5	121269	29832.005410239663	2.653629157096
5	121288	29834.799053294418	0.255900129597
5	121311	29838.062784439701	1.143641915613
5	121316	29838.348982279158	1.224214743852
5	121335	29844.509401748599	5.142122698904
5	121342	29845.689021496236	4.927878640949
5	121347	29846.722364393173	5.952140196712
5	121353	29847.859913871293	4.628422767701
5	121360	29847.985201217058	4.654037849982
5	121373	29850.560498259409	2.686355652966
5	121383	29851.467839441976	2.460723919466
5	121388	29851.684293568132	2.38045816222
5	121393	29851.809674918186	1.90172945905
5	121404	29853.14502306255	2.373515212929
5	121409	29855.08130877581	2.978870759721
5	121422	29856.504285655753	1.05431002864
5	121443	29863.806352395764	6.427422929112
5	121451	29866.631624622806	6.54481716725
5	121467	29871.583137217295	1.294525142424
5	121500	29881.535495842367	4.458953797504
5	121507	29883.64668900919	4.704798730664
5	121512	29884.958014232037	5.556994467687
5	121520	29885.363743346073	5.135330839437
5	121537	29888.043473378322	2.60628245479
5	121565	29896.688207171911	2.473618059366
5	121578	29901.339607306277	3.604635699213
5	121590	29902.937288824966	0.867590858915
5	121605	29904.822744273978	1.104332336498
5	121634	29915.764299151497	0.210310950041
5	121654	29920.895325383839	2.971985306465
5	121661	29921.708826341452	2.661232113735
5	121672	29922.680678614979	0.921247772841
5	121682	29924.758113105542	0.744036334237
5	121711	29940.901249443087	4.015945252326
5	121725	29945.910133727684	2.559822322069
5	121733	29946.008295173318	2.599781360465
5	121738	29946.804419250566	0.935619308419
5	121751	29948.647933705947	0.31112486693
5	121761	29949.711471966052	0.274882250149
5	121775	29951.093122010703	1.086492880237
5	121787	29955.610756616404	5.184758361865
5	121794	29957.070927546317	2.940742320897
5	121806	29962.312974211508	7.168187233271
5	121811	29962.392571271392	3.796991961697
5	121816	29962.698829653655	1.873221736619
5	121837	29969.258316554387	3.908133079765
5	121850	29971.854428934998	5.190035984603
5	121856	29973.284777966563	2.571441964043
5	121868	29975.059088252176	4.26507536865
5	121878	29980.425080245983	5.501555361737
5	121887	29981.156785327818	4.787348590308
5	121892	29981.31414956823	1.242845679528
5	121900	29981.795999631442	1.262948073307
5	121907	29983.441419649309	1.768805819954
5	121926	29987.197064420163	3.675393120841
5	121931	29990.35007042762	6.376889526422
5	121942	29994.223891260686	7.84001716565
5	121951	29995.439127680359	3.436388394131
5	121961	29996.648286619804	2.152173362664

