version 2
run Second-n2-13-20191016-14:53:00-8204
attr configname Second-n2
attr datetime 20191016-14:53:00
attr experiment Second-n2
attr inifile omnetpp.ini
attr iterationvars ""
attr iterationvarsf ""
attr measurement ""
attr network org.omnetpp.queueing.Pizza
attr processid 8204
attr repetition 13
attr replication ""
attr resultdir results
attr runnumber 13
attr seedset 13
param **.PS.maxInventoriedPS 2
param **.U1.interArrivalTime exponential(3s)
param **.U2.interArrivalTime exponential(5s)
param **.PS.serviceTimeForInventoryU1 exponential(1.0s)
param **.PS.serviceTimeForInventoryU2 exponential(1.2s)
param **.PS.serviceTimeDirectU1 exponential(1.4s)
param **.PS.serviceTimeDirectU2 exponential(1.4s)
param **.PS.probabilityProducing 0.7
param **.CS.serviceTimeU1 exponential(1.1s)
param **.CS.serviceTimeU2 exponential(1.4s)

vector 0 Pizza.EntryQueueU1 queueLength:vector ETV
attr interpolationmode sample-hold
attr title "queue length, vector"
vector 1 Pizza.CS queueLength:vector ETV
attr interpolationmode sample-hold
attr title "queue length, vector"
vector 2 Pizza.EntryQueueU2 queueLength:vector ETV
attr interpolationmode sample-hold
attr title "queue length, vector"
vector 3 Pizza.sink lifeTime:vector ETV
attr interpolationmode none
attr title "lifetime of arrived jobs, vector"
attr unit s
vector 4 Pizza.sink lifeTimeU2:vector ETV
attr interpolationmode none
attr title "lifetime of arrived jobs, vector"
attr unit s
0	0	0	0
0	7	5.324835378102	1
0	12	11.215102530395	0
0	16	12.029129270795	1
0	21	14.26790241258	0
0	25	14.833588375069	1
0	29	16.148327423016	0
0	44	18.674187604099	1
0	45	19.115697713847	0
0	61	20.942930555857	1
0	63	21.680244754207	2
0	71	27.070914884434	1
0	76	28.164084126892	0
0	90	30.076133805144	1
0	92	30.733706472608	2
0	94	30.969918857563	3
0	100	32.467647219198	2
0	105	32.467660461125	1
0	114	33.683034521786	2
0	115	34.014177527024	1
0	120	35.290400857717	0
0	143	37.249749732446	1
0	146	38.516911748237	0
0	173	44.484824830474	1
0	175	44.770552931614	2
0	178	45.382426401878	1
0	183	46.040666031128	0
0	256	61.797466226326	1
0	257	62.459129395702	0
0	273	65.143228895721	1
0	274	65.891689010767	0
0	288	67.511660508288	1
0	290	67.606707951854	2
0	291	67.725270493634	1
0	296	68.687770836131	0
0	302	69.980822572449	1
0	304	70.956856134614	2
0	308	74.966349963557	3
0	309	75.362601911012	2
0	314	76.161274488361	1
0	320	76.725541508529	0
0	362	86.421907760573	1
0	364	88.762016642735	2
0	367	90.253750347658	1
0	372	92.198496778668	0
0	406	102.131228336423	1
0	410	102.897261405704	2
0	412	103.034215141045	3
0	414	103.947330783118	2
0	420	105.017028084455	1
0	425	105.064006603283	0
0	443	107.296590638589	1
0	449	110.325792879565	0
0	460	110.851553722397	1
0	463	111.843401095055	2
0	467	113.229873559703	3
0	468	113.392476915522	2
0	474	113.698693283399	1
0	480	115.336612389387	2
0	483	116.830333397149	3
0	485	117.387741154803	4
0	488	119.948162860635	3
0	494	120.449727901557	4
0	496	122.65478833977	3
0	501	122.769912304728	2
0	507	125.758151429944	3
0	510	128.099184908306	2
0	514	128.346254515818	3
0	517	131.337549297355	2
0	521	132.0406315201	3
0	526	134.299010147327	2
0	535	137.122791213286	1
0	542	140.197633458953	0
0	579	147.510753849642	1
0	580	147.848674496668	0
0	607	152.273923555856	1
0	610	153.639707121987	0
0	619	154.203956533687	1
0	628	162.659595722791	0
0	644	164.522127920466	1
0	645	164.643004970819	0
0	649	164.781606846284	1
0	652	167.852225724862	0
0	656	167.855156952834	1
0	660	169.087281856187	0
0	669	169.518641751848	1
0	671	171.34665316031	2
0	675	173.604723178396	1
0	680	173.96815424371	0
0	684	175.358022015581	1
0	687	176.604248955518	0
0	701	179.733346585756	1
0	702	179.939642791021	0
0	714	182.451922745166	1
0	717	184.551906588007	0
0	726	186.008986481558	1
0	727	186.489221010679	0
0	754	189.100560395948	1
0	760	189.356116411838	2
0	761	190.311939403079	1
0	767	190.477275671538	0
0	787	196.385516406976	1
0	790	199.559999372339	0
0	807	202.957869298376	1
0	814	206.831189277276	0
0	823	209.238001697029	1
0	824	209.541992076347	0
0	860	213.943466320382	1
0	865	215.830084602631	0
0	876	216.189201348027	1
0	877	216.218580827263	0
0	914	223.688934383963	1
0	915	223.748367290684	0
0	927	226.220651617934	1
0	931	229.202108968527	2
0	934	231.63205842354	1
0	939	232.223570934753	0
0	945	235.290608461099	1
0	949	236.38605511932	2
0	951	237.095882780748	3
0	953	237.177947202164	4
0	955	237.753740162577	3
0	960	238.413915147583	2
0	966	239.078066029648	3
0	967	240.059736133457	2
0	972	241.022345555529	1
0	983	242.949736369213	2
0	991	243.557643131466	3
0	993	243.890536656835	4
0	998	246.345617619558	3
0	1003	246.830201485455	2
0	1011	248.06409662822	3
0	1012	248.223180020245	2
0	1019	248.917924958255	1
0	1029	250.43089106118	2
0	1031	250.78873380722	3
0	1032	251.004962081149	2
0	1036	251.082461088543	3
0	1039	252.289079845772	2
0	1047	255.783646956002	3
0	1049	256.239620902117	4
0	1053	256.812789454203	5
0	1054	257.16606012057	4
0	1060	257.398865696608	5
0	1062	257.613770438931	6
0	1063	257.770515497682	5
0	1068	258.394631525967	4
0	1073	258.855361969147	3
0	1078	260.89282812832	2
0	1083	261.799110241783	1
0	1089	262.364160584616	0
0	1119	266.498155423517	1
0	1120	266.516739229382	0
0	1129	267.333154639339	1
0	1133	270.030627947612	0
0	1147	278.182726539443	1
0	1149	278.650929910121	2
0	1151	279.136271652472	3
0	1156	281.035031981317	2
0	1161	282.660283643266	1
0	1166	283.348872346548	0
0	1178	285.112854785208	1
0	1179	286.722550828813	0
0	1195	287.691776216594	1
0	1196	288.045791774206	0
0	1200	289.117397984541	1
0	1207	291.275119656675	2
0	1208	291.607955752696	1
0	1214	293.409172770297	0
0	1238	297.370531549864	1
0	1240	297.898445676846	0
0	1246	298.570719421403	1
0	1247	299.124361300482	0
0	1273	308.689716561255	1
0	1274	308.728579737986	0
0	1289	313.339638861008	1
0	1292	314.860032659032	0
0	1306	321.164250436031	1
0	1311	323.354414642155	0
0	1330	328.547304584685	1
0	1337	331.797216440741	0
0	1344	332.035092304828	1
0	1345	332.267735443607	0
0	1363	332.661992397815	1
0	1365	333.081845198907	2
0	1367	333.363498418726	3
0	1368	335.00848281528	2
0	1374	336.073820401734	1
0	1380	336.482179274382	2
0	1381	336.942042772903	1
0	1388	338.49244847388	0
0	1394	339.090163918364	1
0	1396	339.796188930334	2
0	1400	341.051821463357	1
0	1405	341.34145201763	0
0	1425	347.06526828987	1
0	1427	348.256194530604	2
0	1430	348.747817341258	1
0	1436	349.085085423187	2
0	1438	350.560936126378	1
0	1445	351.650669489078	2
0	1446	352.113739558645	1
0	1451	353.312575241773	0
0	1457	353.351765523077	1
0	1464	360.771286494811	0
0	1476	362.25684605375	1
0	1478	363.088593342781	2
0	1479	363.880006823811	1
0	1487	365.499001551303	2
0	1490	366.570221720202	1
0	1496	366.893898201945	0
0	1510	368.733665377414	1
0	1511	369.228586230926	0
0	1544	375.366393800174	1
0	1545	376.242163789144	0
0	1580	389.260931512546	1
0	1582	389.269803953238	2
0	1583	389.792622455219	1
0	1589	389.93303847944	2
0	1591	391.024736045286	1
0	1598	391.855628679779	0
0	1627	397.2731482466	1
0	1628	397.373456849835	0
0	1636	397.561400734275	1
0	1639	399.127204707134	0
0	1658	402.585989774549	1
0	1661	403.61024445731	0
0	1691	415.259999803581	1
0	1692	415.552038307801	0
0	1698	417.591399242867	1
0	1701	418.749465883307	2
0	1702	419.01643632957	1
0	1707	419.166848871243	0
0	1728	422.06970027857	1
0	1729	422.239035383329	0
0	1764	429.476683515618	1
0	1767	430.114195483233	2
0	1768	430.725474217759	1
0	1774	431.186414652091	0
0	1815	441.996539077208	1
0	1816	443.07967597708	0
0	1838	448.130397957592	1
0	1841	448.762304978413	0
0	1853	450.021348379247	1
0	1855	450.295741891787	2
0	1856	450.439385014937	1
0	1863	452.616954883655	0
0	1869	455.411856831392	1
0	1871	455.438396344497	2
0	1875	458.162420411226	3
0	1878	458.849595165303	2
0	1884	459.118740599458	3
0	1885	459.742401258277	2
0	1893	460.624797683907	3
0	1898	462.708325733218	2
0	1906	464.214625456452	1
0	1911	464.95419421215	0
0	1917	466.449309746469	1
0	1918	467.153598784903	0
0	1931	469.195894447285	1
0	1932	470.622234326757	0
0	1974	480.117593183605	1
0	1979	483.962278301231	0
0	1998	488.018694499892	1
0	2001	488.308204789284	0
0	2016	490.52995627242	1
0	2017	490.597044949054	0
0	2032	492.868958552467	1
0	2035	493.454478098591	0
0	2050	496.438868782321	1
0	2054	503.330203091655	2
0	2056	503.518555058466	3
0	2058	503.641216787068	4
0	2060	503.733529952098	5
0	2062	504.391754981699	6
0	2066	506.017586791019	7
0	2067	506.626279471718	6
0	2073	506.942174199767	5
0	2079	506.98490394353	6
0	2081	507.167475634328	7
0	2085	508.010789718671	6
0	2090	508.654209469294	5
0	2097	510.097694467398	4
0	2102	510.347861559818	3
0	2109	510.863939513056	2
0	2116	511.208174325919	1
0	2121	511.351508798249	0
0	2139	516.964544726157	1
0	2141	518.586909054066	0
0	2160	520.465122695109	1
0	2161	521.700535872385	0
0	2168	524.346017666462	1
0	2170	524.4688581998	2
0	2175	527.416194157402	1
0	2180	527.59254437124	0
0	2196	530.687437886548	1
0	2198	531.529429348963	2
0	2201	531.729902594384	1
0	2206	532.045408112762	0
0	2215	533.822570583195	1
0	2216	534.508596599443	0
0	2241	546.856813126884	1
0	2245	548.472986511966	2
0	2246	548.584326286437	1
0	2252	548.732604417854	2
0	2253	548.89907677322	1
0	2260	550.530943138596	0
0	2274	552.245709960369	1
0	2281	554.314102696247	0
0	2285	554.603749300039	1
0	2292	556.425979388994	0
0	2296	556.454597864388	1
0	2302	558.173089546439	0
0	2308	558.302471269432	1
0	2311	558.668012333238	2
0	2312	559.161764968498	1
0	2319	560.581444449367	0
0	2342	564.360801171716	1
0	2349	569.5079508974	0
0	2362	572.375921662999	1
0	2364	572.826897058965	2
0	2365	573.131745673214	1
0	2370	573.472356464155	0
0	2386	577.45211489001	1
0	2389	578.324321759938	0
0	2397	581.445756411974	1
0	2398	581.88026946391	0
0	2418	584.009574462089	1
0	2419	584.797957347108	0
0	2426	585.301739245483	1
0	2431	587.366299173831	2
0	2434	587.589423780796	1
0	2439	588.43088930634	0
0	2465	598.844307295156	1
0	2467	599.443422705529	2
0	2468	600.656139350604	1
0	2473	600.73924120318	0
0	2485	603.176581477896	1
0	2489	604.371372270507	0
0	2495	604.760052045771	1
0	2497	605.9891431941	0
0	2511	608.772592172498	1
0	2512	608.861478143811	0
0	2518	609.152571578323	1
0	2522	610.892127880555	0
0	2536	612.093413858596	1
0	2542	613.625276707268	2
0	2544	613.76124500696	3
0	2546	614.239578892693	4
0	2547	614.67850023852	3
0	2552	614.91105827257	2
0	2557	614.990818129551	1
0	2561	615.893224185929	2
0	2566	617.499821698765	1
0	2571	617.513967769338	0
0	2575	617.847658822966	1
0	2579	618.842791986083	2
0	2580	618.872754984123	1
0	2585	619.013624731734	0
0	2619	631.602588362044	1
0	2621	634.664399708743	0
0	2640	646.237432202529	1
0	2642	646.480552032731	2
0	2643	646.538574112423	1
0	2649	647.355684680757	0
0	2664	650.125365989291	1
0	2667	651.663698802749	0
0	2684	655.519953220352	1
0	2686	655.72678050257	2
0	2689	658.149147436169	1
0	2695	658.311581540473	0
0	2746	673.495143551759	1
0	2749	673.984525142062	2
0	2750	674.733761252718	1
0	2758	675.469022241551	0
0	2847	702.719168516797	1
0	2851	703.569287554791	2
0	2853	704.677516345852	1
0	2858	704.878131667281	0
0	2866	706.487517765492	1
0	2867	706.643660893394	0
0	2878	707.996807407753	1
0	2879	708.426007262166	0
0	2917	724.134078048573	1
0	2919	724.542813921479	0
0	2958	734.316538676089	1
0	2959	734.509870201115	0
0	3005	750.915834879108	1
0	3008	751.337660925038	0
0	3038	766.853821919753	1
0	3040	768.373292640676	0
0	3085	780.29415734688	1
0	3087	781.703546264091	0
0	3094	782.835753633175	1
0	3098	783.464964976342	2
0	3099	783.757185098202	1
0	3104	784.076802247712	0
0	3134	792.93197277812	1
0	3135	793.693311900631	0
0	3142	795.857981470206	1
0	3143	796.161790458448	0
0	3166	799.153968723926	1
0	3168	799.532086660218	2
0	3169	800.166886880615	1
0	3175	800.363105977699	2
0	3177	800.811455006778	1
0	3182	801.92861942729	0
0	3196	807.057815795639	1
0	3197	807.921587442714	0
0	3221	825.64775622026	1
0	3222	825.682026870918	0
0	3228	826.07372514483	1
0	3229	826.385597813818	0
0	3259	835.630177865622	1
0	3261	835.89257144972	2
0	3262	838.845283753115	1
0	3268	839.401701403706	0
0	3283	845.429874697592	1
0	3286	847.036171842739	0
0	3295	848.631716422583	1
0	3296	849.321674273583	0
0	3303	850.001060462586	1
0	3304	850.499205213344	0
0	3317	853.273069799131	1
0	3319	854.099437196035	2
0	3320	854.531032975713	1
0	3327	855.13412521025	2
0	3328	855.402009321208	1
0	3333	855.468599260988	0
0	3355	863.26467715094	1
0	3356	863.575127222415	0
0	3369	864.604187740704	1
0	3373	866.019505002005	2
0	3375	866.479489360693	3
0	3379	866.938431623017	4
0	3380	867.397479962018	3
0	3385	868.419331615747	2
0	3391	868.574529243582	3
0	3393	869.949390317469	2
0	3398	871.687516007852	1
0	3403	872.158690179065	0
0	3430	879.298149913243	1
0	3432	880.427571168229	2
0	3438	880.997115675228	3
0	3439	881.63310413967	2
0	3445	882.421223552227	1
0	3450	882.712750172025	0
0	3457	882.791712511792	1
0	3459	882.805637375408	2
0	3460	884.208447102419	1
0	3465	884.846527680324	0
0	3469	885.749669720707	1
0	3471	885.997153587196	2
0	3476	886.807744279054	1
0	3482	887.741998440246	2
0	3483	887.937126039097	1
0	3488	889.347804405116	0
0	3509	895.32777813848	1
0	3513	895.611206267966	2
0	3515	895.880192214053	1
0	3520	895.947731954618	0
0	3530	897.620750414479	1
0	3534	897.747401784923	2
0	3535	897.764362061981	1
0	3540	898.0804064975	0
0	3544	898.450222933745	1
0	3548	899.450952161414	0
0	3582	907.370998682543	1
0	3583	907.506269918692	0
0	3597	909.541238975941	1
0	3598	909.848304885491	0
0	3609	910.479381733928	1
0	3611	910.712285229602	2
0	3614	911.052489601699	3
0	3617	911.108187347038	4
0	3621	912.118997376204	3
0	3630	913.054165466359	2
0	3635	913.859226205705	1
0	3641	913.963451024465	2
0	3642	914.346013368085	1
0	3654	916.931986404613	0
0	3660	917.533589772442	1
0	3662	918.979948200497	0
0	3701	930.041165729476	1
0	3704	933.020453192132	0
0	3735	939.936755217809	1
0	3737	943.004117717248	2
0	3739	944.198538142376	3
0	3742	947.357106642716	2
0	3748	947.736873322722	1
0	3755	948.278075083738	0
0	3762	948.524971197946	1
0	3763	948.575998579878	0
0	3771	949.685250516675	1
0	3772	949.991947009124	0
0	3778	950.659187234005	1
0	3782	950.815713976021	0
0	3805	956.505834824978	1
0	3811	962.74768362842	2
0	3812	964.039150864806	1
0	3818	964.21866745585	0
0	3828	966.044168312253	1
0	3830	966.887789573891	2
0	3833	967.675313230872	1
0	3840	971.044544281028	0
0	3846	972.475775593684	1
0	3848	972.752945019565	2
0	3851	974.813578832064	3
0	3853	975.226065661513	4
0	3854	975.965165511454	3
0	3861	976.181705121464	4
0	3863	977.959871195883	5
0	3865	978.080286988632	6
0	3867	978.693360403591	7
0	3871	979.402027034224	8
0	3872	980.529245465183	7
0	3877	980.879918539173	6
0	3882	981.860087659775	5
0	3892	984.869112236346	6
0	3894	985.737092866066	7
0	3897	986.302117927525	6
0	3905	988.966752224419	5
0	3910	989.928472341223	4
0	3916	992.32070369307	3
0	3921	992.338101348624	2
0	3925	992.598407359461	3
0	3932	993.786003216172	2
0	3939	994.438047149356	3
0	3940	994.486531744046	2
0	3945	994.757940473542	1
0	3949	994.761834867802	2
0	3954	1000.008648225958	1
0	3963	1002.415781072046	0
0	3967	1005.974856369574	1
0	3970	1007.629524531182	0
0	3974	1007.698233351993	1
0	3977	1008.928678050252	0
0	3985	1012.635118421142	1
0	3986	1012.924452885661	0
0	3992	1014.078118227999	1
0	3994	1014.230811595229	0
0	4005	1015.576250232068	1
0	4006	1016.1704880813	0
0	4010	1017.031827209502	1
0	4013	1021.150429311036	0
0	4028	1023.623773240691	1
0	4032	1024.124279845094	2
0	4033	1024.458805163123	1
0	4041	1025.593448035695	2
0	4042	1025.844877888684	1
0	4047	1025.907142028312	0
0	4051	1026.233889792108	1
0	4056	1027.127210036233	2
0	4057	1027.158608861814	1
0	4062	1027.284831183333	0
0	4070	1028.736922887729	1
0	4071	1028.838984325047	0
0	4092	1032.741523567326	1
0	4096	1033.033290686605	2
0	4099	1037.553107084717	3
0	4100	1037.978344796152	2
0	4107	1037.99861038023	3
0	4109	1040.55002287889	2
0	4116	1040.811878652876	1
0	4121	1042.361739101252	0
0	4125	1046.446955178503	1
0	4128	1046.949913050772	0
0	4140	1048.928806220218	1
0	4141	1049.002869037575	0
0	4162	1052.314933173229	1
0	4166	1053.664269507288	2
0	4168	1053.985649335367	3
0	4170	1054.137271696827	4
0	4172	1054.515374502258	5
0	4173	1055.497155110135	4
0	4179	1055.643395632785	5
0	4181	1056.65245542473	4
0	4188	1057.914594022325	3
0	4193	1058.031839562038	2
0	4199	1059.34879400939	1
0	4204	1059.688687964523	0
0	4235	1067.149764460706	1
0	4239	1067.868327944555	2
0	4240	1068.248719725578	1
0	4246	1068.693230300087	2
0	4247	1069.168724854863	1
0	4252	1069.469284733259	0
0	4267	1071.62775925916	1
0	4273	1074.51823009598	0
0	4301	1080.774826017446	1
0	4302	1081.215609614355	0
0	4308	1081.272291285368	1
0	4309	1081.895632036895	0
0	4347	1098.401837209658	1
0	4348	1099.115329372165	0
0	4355	1101.75996172971	1
0	4356	1103.177571709135	0
0	4399	1121.004019259785	1
0	4404	1121.740393541693	0
0	4432	1131.655742672133	1
0	4433	1132.652795015263	0
0	4439	1133.626391904918	1
0	4441	1134.8368337959	0
0	4453	1136.238168802454	1
0	4459	1138.074920881356	0
0	4465	1138.612557344073	1
0	4467	1139.290740485837	2
0	4469	1139.533013906468	1
0	4475	1140.860033051433	0
0	4481	1140.920413217268	1
0	4482	1141.170926282185	0
0	4495	1144.642061174905	1
0	4496	1145.134648205855	0
0	4516	1147.81489029446	1
0	4517	1148.644539479224	0
0	4525	1151.568556824003	1
0	4527	1153.294761547274	2
0	4529	1153.411580625139	1
0	4536	1153.950668202449	2
0	4539	1154.781102368891	1
0	4544	1155.612073003045	0
0	4589	1164.04212113526	1
0	4591	1164.675467160801	2
0	4593	1164.844127770294	3
0	4595	1164.967522244347	4
0	4596	1165.18837097547	3
0	4602	1165.920621503314	2
0	4607	1165.932831037992	1
0	4611	1165.944823782723	2
0	4621	1168.679746564059	3
0	4622	1168.863782269526	2
0	4630	1169.977806055857	3
0	4634	1171.521616442466	2
0	4640	1171.969435443112	1
0	4648	1172.87943799486	2
0	4649	1173.094732974766	1
0	4655	1173.200411020911	2
0	4656	1173.439336385803	1
0	4661	1173.896342151634	0
0	4680	1179.4863352492	1
0	4681	1180.29978015396	0
0	4709	1187.939836730291	1
0	4712	1189.934238865689	0
0	4747	1199.214412106237	1
0	4752	1202.499432349101	0
0	4756	1203.634338048933	1
0	4761	1205.354833594068	0
0	4777	1206.698502150526	1
0	4779	1207.695491790996	2
0	4781	1209.136700133506	1
0	4786	1209.730296830224	0
0	4790	1210.042781824125	1
0	4793	1212.38734078071	0
0	4831	1222.769129883565	1
0	4832	1223.247406321302	0
0	4838	1224.576540217645	1
0	4842	1225.381701036009	0
0	4863	1229.962631298583	1
0	4864	1230.147728037356	0
0	4924	1251.127635866125	1
0	4927	1251.502606011148	0
0	4946	1254.998108352506	1
0	4949	1256.393766521808	0
0	4986	1263.767443550849	1
0	4992	1265.13932522073	2
0	4995	1265.873748422746	1
0	5003	1267.378816638523	2
0	5005	1267.594407885703	3
0	5006	1267.682064588533	2
0	5011	1267.96403351434	1
0	5016	1268.034397024252	0
0	5109	1294.10647962154	1
0	5111	1294.23367917144	2
0	5112	1294.273174203321	1
0	5118	1294.45856568479	0
0	5131	1297.733278499422	1
0	5132	1299.396131097603	0
0	5161	1310.095896868803	1
0	5163	1310.144247771336	2
0	5165	1315.31520071562	1
0	5171	1316.34888138297	2
0	5173	1317.109237988475	1
0	5178	1318.985893616661	0
0	5186	1322.122354453507	1
0	5187	1322.349128157741	0
0	5191	1322.652417680704	1
0	5195	1323.615067167213	0
0	5222	1331.15339639353	1
0	5223	1332.562794120397	0
0	5246	1340.029721047646	1
0	5247	1340.110311593974	0
0	5253	1340.493598545661	1
0	5255	1341.168485566627	2
0	5258	1343.641188154218	3
0	5260	1344.174128709788	2
0	5266	1344.415277493592	1
0	5271	1345.664622155864	0
0	5292	1349.067498618932	1
0	5297	1355.876634681781	0
0	5342	1371.481016240441	1
0	5344	1372.131774397998	2
0	5347	1372.418329856701	1
0	5352	1373.187107681812	0
0	5365	1376.069306993081	1
0	5367	1377.087033269529	2
0	5372	1378.504604610713	3
0	5377	1381.207470031529	2
0	5384	1383.192634411791	3
0	5385	1384.58824734507	2
0	5391	1385.103463280951	1
0	5398	1385.985944341969	0
0	5405	1386.732440133981	1
0	5407	1387.084188193455	2
0	5409	1387.983246358938	1
0	5415	1388.208843161538	2
0	5417	1388.963282605091	1
0	5422	1389.176721323278	0
0	5446	1390.644375436917	1
0	5448	1391.451778879457	2
0	5451	1392.860246700659	1
0	5455	1395.634667603254	2
0	5461	1398.311667829747	3
0	5465	1399.274699942227	2
0	5470	1399.417092490415	1
0	5475	1400.573990430027	0
0	5479	1402.318991167922	1
0	5487	1406.482222944195	0
0	5522	1413.581673147319	1
0	5523	1414.059388073106	0
0	5534	1415.908227199473	1
0	5538	1419.821968710187	2
0	5542	1421.509337985241	3
0	5543	1421.773895742424	2
0	5548	1421.839792276305	1
0	5552	1421.884590946186	2
0	5559	1424.048322508856	1
0	5565	1424.062766388136	2
0	5567	1424.605426570901	1
0	5571	1424.871318201515	2
0	5577	1429.084816091655	3
0	5578	1430.323046808884	2
0	5583	1430.871171211517	1
0	5590	1432.243157957026	0
0	5620	1441.547506080962	1
0	5621	1442.867226460821	0
0	5643	1446.872643128871	1
0	5644	1447.140412637328	0
0	5653	1447.643365100815	1
0	5657	1448.421977109071	2
0	5659	1448.894290924191	3
0	5665	1451.483438875894	2
0	5673	1452.50000740604	1
0	5678	1452.64977776206	0
0	5690	1454.067171047055	1
0	5694	1456.260505805209	0
0	5705	1458.569910195707	1
0	5707	1460.705875156485	2
0	5711	1463.164609864424	3
0	5713	1464.103200802157	2
0	5718	1464.326621113022	1
0	5726	1465.696261877149	2
0	5727	1466.179639975858	1
0	5733	1466.810825218077	0
0	5757	1472.217612025885	1
0	5762	1473.169247558536	0
0	5768	1473.707953372949	1
0	5774	1474.933784517369	0
0	5799	1479.183789331034	1
0	5800	1480.453072085441	0
0	5813	1483.085442828557	1
0	5815	1484.491339850309	2
0	5816	1484.927453498271	1
0	5822	1488.307373717247	0
0	5839	1490.770621719533	1
0	5848	1492.293680279702	2
0	5849	1492.975834977748	1
0	5856	1493.197949969071	0
0	5889	1495.663917461652	1
0	5891	1499.213544483051	2
0	5894	1499.551326242193	1
0	5899	1499.906448376587	0
0	5905	1500.91695435308	1
0	5906	1501.433477698698	0
0	5924	1503.716016071465	1
0	5930	1506.152956032138	0
0	5942	1508.230735637225	1
0	5946	1508.679206122616	2
0	5948	1509.807181544118	3
0	5950	1509.814894455097	4
0	5952	1511.198661189216	5
0	5953	1511.460792791443	4
0	5959	1511.658722565148	5
0	5961	1511.751120820037	4
0	5966	1512.350373514639	3
0	5972	1512.710478052852	2
0	5976	1512.924688002676	3
0	5980	1516.219344906211	2
0	5988	1517.530882263056	3
0	5989	1518.046484617535	2
0	5994	1518.63989627273	1
0	5999	1519.588992485831	0
0	6015	1521.805848727781	1
0	6017	1523.069936597249	0
0	6054	1530.609109347297	1
0	6056	1531.672868495972	2
0	6061	1532.821853071469	1
0	6066	1533.583021150757	0
0	6081	1540.377052072368	1
0	6087	1545.667672223058	0
0	6114	1557.800644792261	1
0	6120	1559.371958613142	2
0	6125	1559.849365694918	3
0	6129	1563.971424160323	2
0	6134	1563.973335734004	1
0	6140	1564.265347343516	2
0	6144	1564.43125733198	3
0	6147	1564.850663861403	2
0	6152	1566.773396325243	1
0	6160	1568.305668741171	2
0	6164	1569.633690400682	1
0	6170	1569.99581423623	2
0	6171	1570.027800292181	1
0	6176	1573.226207076912	0
0	6180	1573.469079456555	1
0	6183	1574.50948880576	0
0	6189	1575.462325197288	1
0	6190	1577.170563384816	0
0	6217	1581.307709642011	1
0	6218	1582.810938926322	0
0	6224	1583.989555012412	1
0	6240	1587.559980704688	2
0	6243	1588.84553858878	1
0	6248	1589.109059182556	0
0	6259	1590.815625592288	1
0	6260	1591.208327327716	0
0	6304	1598.550955757735	1
0	6305	1598.937466335364	0
0	6316	1602.996480093893	1
0	6318	1603.375815605045	2
0	6320	1604.981706358729	3
0	6328	1610.133485950586	2
0	6336	1613.127928476122	3
0	6338	1614.358576147549	4
0	6339	1614.924320701178	3
0	6345	1616.628557181636	4
0	6346	1616.884893925945	3
0	6350	1617.167361054977	4
0	6352	1617.281236366473	5
0	6356	1618.975802352214	4
0	6361	1619.07940385743	3
0	6369	1620.524572262479	4
0	6371	1621.250751096626	5
0	6372	1621.765740953365	4
0	6379	1622.995245601378	5
0	6382	1624.024153901754	6
0	6387	1625.831319109321	5
0	6393	1626.235714759461	6
0	6395	1627.709929712959	5
0	6400	1628.054545352249	4
0	6405	1628.802584697295	3
0	6409	1629.848524493926	4
0	6413	1630.815605268935	5
0	6414	1631.19349776291	4
0	6424	1635.411698843434	5
0	6425	1636.048425071537	4
0	6431	1636.126125897891	5
0	6432	1636.218837787077	4
0	6437	1636.373753009982	3
0	6443	1639.52207905874	4
0	6446	1641.52421746021	3
0	6450	1641.717076900237	4
0	6458	1643.73429951193	5
0	6462	1646.481088547359	6
0	6464	1647.727521218091	7
0	6467	1648.643143489897	6
0	6473	1649.959363141047	7
0	6474	1650.003793003905	6
0	6479	1650.630181543109	5
0	6487	1651.727100813161	6
0	6488	1652.238689620464	5
0	6494	1655.097897317089	4
0	6499	1655.498808839051	3
0	6505	1658.457455184769	2
0	6513	1658.763882994175	1
0	6522	1659.911713932289	0
0	6528	1662.90755155284	1
0	6530	1663.026168384879	2
0	6532	1664.037297088695	3
0	6533	1664.273954840424	2
0	6538	1664.280672014571	1
0	6545	1666.336338671049	0
0	6561	1668.71635573224	1
0	6563	1669.125668896294	2
0	6564	1669.686551222202	1
0	6569	1671.187733731499	0
0	6589	1678.656143973199	1
0	6591	1678.769096498708	2
0	6594	1682.343528089247	1
0	6600	1682.49353610919	2
0	6601	1682.792022083187	1
0	6609	1684.265939427394	0
0	6632	1689.053036236653	1
0	6635	1690.843807953336	0
0	6642	1691.138804223269	1
0	6645	1691.488549342271	2
0	6647	1693.813365501446	3
0	6648	1695.155956085986	2
0	6654	1695.81737920799	3
0	6657	1697.160401161511	2
0	6666	1698.665890578034	1
0	6671	1698.838836633672	0
0	6692	1703.014970728037	1
0	6699	1705.46831753858	0
0	6716	1709.549335538137	1
0	6719	1710.76722686804	0
0	6725	1710.958462060934	1
0	6726	1711.04153652037	0
0	6748	1714.15270215572	1
0	6751	1717.616006773041	0
0	6761	1718.641724868133	1
0	6763	1719.938148305958	2
0	6765	1722.408902040312	3
0	6769	1723.737210820821	4
0	6772	1724.816388175922	3
0	6778	1725.014185298411	4
0	6779	1725.229068401443	3
0	6786	1725.539080769938	2
0	6790	1725.629659501502	3
0	6797	1727.419780229524	2
0	6802	1730.115333389359	1
0	6808	1730.210555306989	2
0	6810	1731.041974681033	1
0	6824	1733.502121464839	2
0	6825	1733.562257617411	1
0	6832	1734.9699636698	2
0	6833	1736.466775865033	1
0	6839	1737.388656454638	0
0	6855	1743.504893423141	1
0	6858	1743.989179828085	0
0	6866	1744.631042940463	1
0	6868	1744.685780824536	2
0	6869	1746.470107615642	1
0	6874	1746.654485931216	0
0	6900	1750.220172337185	1
0	6904	1751.824403404865	2
0	6905	1751.830927805662	1
0	6910	1752.556721990767	0
0	6926	1761.095662928112	1
0	6931	1764.545651796007	0
0	6946	1767.491606060881	1
0	6947	1767.863125637336	0
0	6953	1767.891461873579	1
0	6954	1768.660572760822	0
0	6960	1768.81863897295	1
0	6962	1769.084531690547	0
0	6976	1776.481401900173	1
0	6978	1777.673481023634	0
0	6985	1782.012850363574	1
0	6989	1784.158362048842	2
0	6990	1784.338580701227	1
0	6996	1785.239228839807	0
0	7020	1791.629784248076	1
0	7022	1791.853384877835	2
0	7025	1793.281851046196	3
0	7028	1793.756418133333	2
0	7034	1794.197186700267	1
0	7039	1794.233819138443	0
0	7057	1801.962400421891	1
0	7062	1804.269451890817	0
0	7068	1805.528471339656	1
0	7069	1805.763047024597	0
0	7073	1807.19090018499	1
0	7077	1810.622632348568	2
0	7086	1815.046899424936	1
0	7092	1815.299596834939	0
0	7113	1822.469108364891	1
0	7116	1824.263554478214	0
0	7148	1831.051097560773	1
0	7149	1831.786844447332	0
0	7159	1832.349762658548	1
0	7162	1833.9471550929	0
0	7174	1835.495955393772	1
0	7175	1835.498173086173	0
0	7182	1837.216898254449	1
0	7184	1837.300077460402	2
0	7185	1837.883850569607	1
0	7192	1838.841037889462	2
0	7193	1839.568550735267	1
0	7198	1840.757263049406	0
0	7217	1844.347098789499	1
0	7219	1847.891720610648	2
0	7221	1848.066570945443	3
0	7225	1848.698274182168	4
0	7228	1849.376798937002	3
0	7236	1850.478590408521	4
0	7239	1851.621827276123	5
0	7240	1851.743352617393	4
0	7245	1852.332346936818	3
0	7250	1853.269818457845	2
0	7254	1857.174810018858	3
0	7257	1857.636891324861	2
0	7261	1858.729324008864	3
0	7265	1862.191381774565	2
0	7271	1862.740300678449	3
0	7274	1863.097437643156	2
0	7280	1863.312243855983	3
0	7284	1863.692957592713	4
0	7290	1865.940496435997	5
0	7292	1866.568292252157	6
0	7297	1868.771137122841	5
0	7302	1869.039943087329	4
0	7310	1869.843225143509	5
0	7311	1870.067882061776	4
0	7315	1870.783882246181	5
0	7320	1875.926348426635	4
0	7329	1880.228330055234	3
0	7335	1880.490262645647	4
0	7339	1881.529880384185	3
0	7345	1881.613606300919	4
0	7346	1881.716792823325	3
0	7353	1884.5881929646	2
0	7358	1886.672021466566	1
0	7362	1886.678563149041	2
0	7367	1889.03780601528	1
0	7373	1890.312368528511	2
0	7374	1890.496465319766	1
0	7378	1892.044458743992	2
0	7385	1893.146820162226	1
0	7390	1893.694989243647	0
0	7396	1894.333730258185	1
0	7397	1895.710080902906	0
0	7432	1901.612740151351	1
0	7437	1904.242278960249	0
0	7449	1905.488503636904	1
0	7450	1905.804490853022	0
0	7479	1912.8143616779	1
0	7482	1914.78869728233	0
0	7498	1918.879428003437	1
0	7503	1919.72320244687	0
0	7512	1920.137406087932	1
0	7516	1923.154396761666	0
0	7526	1925.099520065681	1
0	7530	1926.785185708558	2
0	7531	1927.187427990635	1
0	7537	1928.242725230681	2
0	7540	1928.654402992988	1
0	7546	1929.288290367319	0
0	7560	1930.013454733364	1
0	7561	1931.109606899114	0
0	7572	1931.998061050318	1
0	7574	1932.258984171637	2
0	7577	1934.077980066662	3
0	7581	1934.652925021335	4
0	7583	1935.907408218629	5
0	7586	1937.367286757106	6
0	7588	1939.0548838996	7
0	7590	1939.670753304069	8
0	7592	1940.097674589309	9
0	7594	1940.646183758273	10
0	7596	1942.159726209919	11
0	7600	1946.465356811836	12
0	7601	1947.08946604012	11
0	7609	1949.274402898899	10
0	7615	1949.326941492645	11
0	7617	1950.612888205228	10
0	7622	1951.971871978333	9
0	7627	1952.980563516173	8
0	7633	1953.31688739647	9
0	7635	1954.253152927527	8
0	7640	1954.468439185574	7
0	7646	1954.88599692654	8
0	7647	1956.189557224329	7
0	7652	1959.40252781806	6
0	7656	1959.416163046126	7
0	7658	1959.453983761007	8
0	7661	1959.923158027103	7
0	7665	1960.511315185284	8
0	7667	1962.962656168927	9
0	7670	1963.178364717291	8
0	7677	1964.289151863724	9
0	7679	1965.665175727803	10
0	7680	1965.777223846109	9
0	7687	1967.83702615783	8
0	7692	1968.063239540022	7
0	7698	1968.290043480167	6
0	7703	1968.45811406505	5
0	7712	1970.255295227751	4
0	7716	1973.29161802967	5
0	7723	1974.842478375626	4
0	7729	1975.663202081351	3
0	7736	1977.445212414646	2
0	7742	1978.369874906387	1
0	7748	1979.334867124876	0
0	7761	1982.892589974	1
0	7763	1985.874533020709	2
0	7764	1986.554351932355	1
0	7769	1987.265898823214	0
0	7780	1987.912097951854	1
0	7782	1988.31730198082	0
0	7788	1989.048341602812	1
0	7791	1991.169090745322	0
0	7802	1991.428153510756	1
0	7807	1993.334548354486	2
0	7808	1994.058948772058	1
0	7813	1996.005271954613	0
0	7817	1996.473955933018	1
0	7819	1996.640597125377	2
0	7824	1997.633723319869	1
0	7829	1998.536446970217	0
0	7846	2000.420707525724	1
0	7849	2001.3866788989	0
0	7859	2002.007465904247	1
0	7862	2002.862641095502	0
0	7885	2005.303030543277	1
0	7886	2005.374965956262	0
0	7892	2005.829396128782	1
0	7894	2006.736971485804	2
0	7895	2006.785122606929	1
0	7900	2008.792805669883	0
0	7907	2010.20616299667	1
0	7910	2011.622232265722	0
0	7933	2016.445018377238	1
0	7934	2016.512005943376	0
0	7948	2018.05326252737	1
0	7950	2018.814798111761	2
0	7951	2019.741099347046	1
0	7956	2020.303554109581	0
0	7967	2023.194341003322	1
0	7970	2023.768519544209	0
0	7989	2027.773798942539	1
0	7995	2028.685090692913	0
0	8010	2030.61138009187	1
0	8014	2032.002894987033	0
0	8028	2033.671414554482	1
0	8032	2035.595978579541	2
0	8034	2037.339271520891	3
0	8037	2038.188307107673	2
0	8043	2038.787807221763	1
0	8048	2039.510468737829	0
0	8054	2040.479039179762	1
0	8055	2040.730295713776	0
0	8067	2041.583617959636	1
0	8070	2042.862875260933	2
0	8075	2045.737905708843	1
0	8082	2047.476892429456	2
0	8083	2048.055410305586	1
0	8088	2048.636938765985	0
0	8094	2048.757233423333	1
0	8095	2049.55854082613	0
0	8105	2051.163290828558	1
0	8106	2052.274674997124	0
0	8134	2057.482600426592	1
0	8135	2057.511411523729	0
0	8158	2068.052301176615	1
0	8162	2071.188093443444	0
0	8174	2073.958330073944	1
0	8175	2074.963258327679	0
0	8189	2077.179667361542	1
0	8194	2079.983019849884	0
0	8216	2082.553766577822	1
0	8217	2082.991372871741	0
0	8223	2083.040918374011	1
0	8224	2083.229680956053	0
0	8232	2085.502536554955	1
0	8233	2085.749108070683	0
0	8274	2105.169733426805	1
0	8276	2109.357027493213	0
0	8324	2118.310463085396	1
0	8328	2120.545929055063	2
0	8331	2122.276382798309	1
0	8341	2123.832504401397	2
0	8342	2124.092746165398	1
0	8348	2126.041013172098	2
0	8349	2126.089314638538	1
0	8353	2127.30829629134	2
0	8362	2130.657612451504	1
0	8368	2131.066394925625	2
0	8370	2132.044915864323	3
0	8371	2132.185541096181	2
0	8378	2132.724351666024	3
0	8383	2134.629443339589	4
0	8385	2135.164453386034	5
0	8388	2136.206999318427	4
0	8395	2136.871832257039	3
0	8401	2137.366216458006	4
0	8403	2138.020725444503	3
0	8408	2138.158021211534	2
0	8414	2141.726172783546	3
0	8418	2142.029369779346	4
0	8419	2143.348332648583	3
0	8425	2143.990742884127	4
0	8428	2144.659966639496	5
0	8430	2146.458655226272	4
0	8436	2148.182159690775	3
0	8442	2150.531771792906	2
0	8447	2151.444747658471	1
0	8454	2155.168291846888	0
0	8460	2155.279830594705	1
0	8461	2155.617908125014	0
0	8483	2159.187663141399	1
0	8485	2159.310156250696	2
0	8491	2163.858120529972	3
0	8494	2165.85911407429	2
0	8499	2166.913533323683	1
0	8505	2168.145836084611	2
0	8506	2168.392466694431	1
0	8511	2168.716101888266	0
0	8515	2168.727308363957	1
0	8521	2169.046112631888	0
0	8539	2170.731137157881	1
0	8541	2171.957553678906	2
0	8544	2172.823080065596	1
0	8549	2174.118278836252	0
0	8560	2176.960300701353	1
0	8561	2177.350916109362	0
0	8565	2177.501345056939	1
0	8567	2177.997355467387	2
0	8569	2178.031242040865	3
0	8573	2178.536806598007	4
0	8576	2179.718362483757	3
0	8582	2180.77510781987	4
0	8586	2182.530840605884	5
0	8589	2184.481090219441	4
0	8594	2185.112717277699	3
0	8602	2188.81854165233	4
0	8604	2190.562520304941	3
0	8609	2191.708964225281	2
0	8615	2192.384345264692	3
0	8619	2194.684358035216	4
0	8621	2195.495366501877	5
0	8622	2195.819676748032	4
0	8626	2197.33442129925	5
0	8632	2199.302304818316	6
0	8634	2200.952459189137	7
0	8637	2201.911807421186	6
0	8642	2203.414824083079	5
0	8649	2204.201404143464	4
0	8654	2205.139018168218	3
0	8662	2207.039688839306	4
0	8664	2207.134551963763	5
0	8666	2207.247258959658	6
0	8667	2207.829588286667	5
0	8672	2209.832014244682	4
0	8678	2210.830914128117	5
0	8679	2211.13848932799	4
0	8685	2212.649471279677	5
0	8689	2214.528959146064	6
0	8691	2214.830059928026	7
0	8693	2215.178614974661	8
0	8699	2216.257756139298	9
0	8700	2219.374418435012	8
0	8706	2219.601956174895	7
0	8712	2219.847060381123	8
0	8714	2220.497137647426	7
0	8719	2220.985283687273	6
0	8725	2221.562293362537	7
0	8727	2221.881953586021	8
0	8729	2222.635802169226	9
0	8730	2223.155156479766	8
0	8736	2228.699060872984	7
0	8742	2230.931907736963	6
0	8748	2233.212138282178	7
0	8749	2233.26962228455	6
0	8757	2235.480502654541	7
0	8758	2236.312374905422	6
0	8762	2237.883565101254	7
0	8766	2239.216911371211	8
0	8770	2242.085626082861	9
0	8771	2242.3442629599	8
0	8782	2244.942679105422	9
0	8783	2245.43302427616	8
0	8791	2247.024149700606	9
0	8793	2247.218478296295	10
0	8794	2247.608310612993	9
0	8802	2250.644708433938	8
0	8808	2250.835498599093	9
0	8809	2251.170001400142	8
0	8816	2252.596950576457	7
0	8821	2252.687917047692	6
0	8827	2253.226648674584	5
0	8832	2253.583104756786	4
0	8836	2254.352730867023	5
0	8839	2255.362063386384	4
0	8843	2255.419613630438	5
0	8845	2256.136343975279	6
0	8847	2256.795159455918	7
0	8849	2257.094820351252	8
0	8852	2257.62242009018	7
0	8860	2261.761522080615	6
0	8866	2262.303686852972	7
0	8867	2262.393565845201	6
0	8872	2263.437476027016	5
0	8879	2265.967310530367	6
0	8880	2266.224700789596	5
0	8885	2266.504621408743	4
0	8892	2270.191833901203	3
0	8897	2271.300978558169	2
0	8902	2272.621084076097	1
0	8909	2273.023877736295	0
0	8913	2274.153676894908	1
0	8918	2275.456796180929	0
0	8938	2280.033289250216	1
0	8945	2281.136220145221	2
0	8946	2281.368056309351	1
0	8952	2281.91558749718	2
0	8955	2282.536248511684	3
0	8957	2282.891417582548	4
0	8958	2283.782203836471	3
0	8965	2285.378601947224	2
0	8972	2286.984074475761	1
0	8977	2288.210301573178	0
0	9006	2292.65893085322	1
0	9010	2294.209843124388	2
0	9014	2294.389920172485	3
0	9015	2294.536374943482	2
0	9022	2295.210429372948	1
0	9028	2296.333806389217	0
0	9050	2301.368896636425	1
0	9055	2304.965978058987	0
0	9061	2306.673558711399	1
0	9063	2306.757375255392	2
0	9064	2307.96178429695	1
0	9069	2308.577239375925	0
0	9090	2312.122682412925	1
0	9093	2313.330330584888	2
0	9094	2314.169981745805	1
0	9099	2314.407404453313	0
0	9111	2316.492000278245	1
0	9114	2317.320881225505	2
0	9116	2318.205787754178	1
0	9124	2318.833668645114	0
0	9137	2319.77871083906	1
0	9139	2320.006969559416	0
0	9146	2320.266802041693	1
0	9147	2320.511547832098	0
0	9172	2329.282099335032	1
0	9175	2329.668868537399	0
0	9190	2331.335375410494	1
0	9191	2332.079232567226	0
0	9200	2333.622516716203	1
0	9202	2333.638399925657	2
0	9204	2334.616884906283	3
0	9210	2337.464593261376	2
0	9216	2337.647685350359	3
0	9220	2338.493139530395	2
0	9225	2339.011989460928	1
0	9231	2339.962555015921	0
0	9239	2341.687220044459	1
0	9240	2341.819950799476	0
0	9244	2343.347827372532	1
0	9247	2344.731759215457	0
0	9251	2344.886869295593	1
0	9256	2345.637646267139	2
0	9258	2346.278829900346	3
0	9259	2347.150862796051	2
0	9267	2349.780274706445	3
0	9271	2352.089988049802	2
0	9279	2352.909983938775	3
0	9280	2353.225553815769	2
0	9286	2353.34506030598	1
0	9292	2354.06079315706	0
0	9296	2354.811464094857	1
0	9299	2356.74950306295	0
0	9305	2357.41716548301	1
0	9306	2357.452220701407	0
0	9331	2361.622461856244	1
0	9335	2362.296162942545	2
0	9339	2363.938713312649	1
0	9346	2364.622106781992	2
0	9347	2364.87861168872	1
0	9352	2365.073040506772	0
0	9375	2368.425810567549	1
0	9378	2369.701267501085	0
0	9396	2372.838822036651	1
0	9398	2373.935494076143	2
0	9404	2378.698263411612	3
0	9405	2379.17045118329	2
0	9410	2379.337413767226	1
0	9416	2379.850569638556	0
0	9443	2385.124396959715	1
0	9445	2386.468540198492	0
0	9466	2391.796890781669	1
0	9470	2393.675767411794	2
0	9471	2394.710542502322	1
0	9476	2395.179562248536	0
0	9493	2397.879817585258	1
0	9496	2399.823302859555	0
0	9511	2401.759769471885	1
0	9518	2403.629384767739	0
0	9528	2405.26288265111	1
0	9532	2407.105411321818	2
0	9534	2407.443283357235	1
0	9539	2408.058730345803	0
0	9552	2409.349940303172	1
0	9554	2410.053648944836	2
0	9555	2410.176539602682	1
0	9566	2411.976507343056	0
0	9594	2420.852666807903	1
0	9597	2421.728683478721	0
0	9603	2422.245925395988	1
0	9605	2423.89509998126	0
0	9622	2427.348731271273	1
0	9624	2427.363211735512	2
0	9625	2427.699431837577	1
0	9630	2427.824679000011	0
0	9637	2429.010984759123	1
0	9639	2429.361593404802	0
0	9664	2434.122796619516	1
0	9668	2434.382366600121	2
0	9670	2434.856070978117	3
0	9673	2435.200032428541	4
0	9674	2437.715253485547	3
0	9681	2438.09145285459	2
0	9687	2438.511243022637	3
0	9688	2438.54533178421	2
0	9693	2439.639907069958	1
0	9697	2440.216996413457	2
0	9700	2441.255358761634	1
0	9705	2442.560955465547	0
0	9729	2447.081981565922	1
0	9730	2448.255705318737	0
0	9737	2449.548613603408	1
0	9738	2450.061668716879	0
0	9753	2451.753465160736	1
0	9758	2454.194308203079	0
0	9764	2454.226733946073	1
0	9765	2454.327442909634	0
0	9776	2458.156333400064	1
0	9777	2458.830535079688	0
0	9786	2461.765836557136	1
0	9789	2463.132732657184	0
0	9831	2475.18570395825	1
0	9834	2475.638790623815	2
0	9835	2476.75040353093	1
0	9841	2477.347738992474	0
0	9948	2516.121597596636	1
0	9950	2516.27051063261	2
0	9954	2519.651230498306	3
0	9957	2520.590715115563	2
0	9963	2522.102587457625	1
0	9969	2523.11661056439	0
0	9998	2531.812298033824	1
0	10001	2533.444398164229	2
0	10002	2533.720109036298	1
0	10008	2534.80618726869	0
0	10014	2535.0566381661	1
0	10015	2537.004469697963	0
0	10044	2547.714024301954	1
0	10045	2548.054626848626	0
0	10060	2556.029348320622	1
0	10062	2559.277064188414	0
0	10081	2560.447529686885	1
0	10086	2561.098466499107	2
0	10090	2562.547533927647	3
0	10091	2562.962359294884	2
0	10096	2563.090545988147	1
0	10101	2563.245019173136	0
0	10130	2570.496578268258	1
0	10132	2573.072175759519	2
0	10133	2573.71252593781	1
0	10138	2574.315075445029	0
0	10193	2587.550757516279	1
0	10195	2588.072632086123	2
0	10196	2588.561848620082	1
0	10201	2589.858027768301	0
0	10274	2618.623900398126	1
0	10275	2620.273862684945	0
0	10288	2621.079876519871	1
0	10289	2621.209822260664	0
0	10304	2630.44103422057	1
0	10305	2631.169042358031	0
0	10320	2633.965506005046	1
0	10321	2634.152341618139	0
0	10351	2642.11974533118	1
0	10353	2642.332143428025	0
0	10401	2661.90822941338	1
0	10403	2664.351984847504	0
0	10496	2687.128050814584	1
0	10497	2688.666922370252	0
0	10503	2688.745852447915	1
0	10505	2689.317120546812	2
0	10506	2689.388049397845	1
0	10512	2690.235843415314	0
0	10528	2693.135783181689	1
0	10530	2694.271320131662	2
0	10531	2694.417241633236	1
0	10536	2694.624578941989	0
0	10571	2710.414583758087	1
0	10575	2713.857770883844	0
0	10594	2717.714503888853	1
0	10596	2717.812355724652	2
0	10598	2719.498278496685	3
0	10606	2721.293995780271	4
0	10607	2721.535454772224	3
0	10613	2721.745094633426	4
0	10614	2721.832416996802	3
0	10620	2721.906462727467	4
0	10623	2722.25618935806	3
0	10630	2722.744521024571	4
0	10634	2723.475375420316	5
0	10635	2723.55774326923	4
0	10640	2723.683961278203	3
0	10646	2723.962051271618	4
0	10650	2728.003472691979	5
0	10651	2728.871047867524	4
0	10656	2729.056430049331	3
0	10662	2729.266793559467	4
0	10664	2729.378309132324	5
0	10666	2729.914777841289	6
0	10668	2730.914392496979	5
0	10673	2731.256256037197	4
0	10678	2732.000234830479	3
0	10683	2732.332588686744	2
0	10689	2733.492910678395	3
0	10691	2733.559491997315	4
0	10692	2734.740769396184	3
0	10699	2737.209051239334	2
0	10707	2739.554139605561	3
0	10710	2740.337240507894	2
0	10717	2741.778041542474	1
0	10724	2744.484757204712	0
0	10732	2748.399666220967	1
0	10733	2748.666818833518	0
0	10742	2753.570820329494	1
0	10744	2755.98406081243	2
0	10746	2756.613324139936	3
0	10748	2759.747913874375	4
0	10749	2760.094928842966	3
0	10754	2762.456502743739	2
0	10762	2766.37316185186	1
0	10769	2770.665341018769	0
0	10794	2779.601217005439	1
0	10800	2781.025063511184	2
0	10803	2781.215727563265	1
0	10808	2781.275463765222	0
0	10815	2781.682074003198	1
0	10816	2781.808901983389	0
0	10827	2783.779649094598	1
0	10828	2784.46662132666	0
0	10852	2791.623111505315	1
0	10855	2793.504088934081	0
0	10870	2796.023312746044	1
0	10873	2798.605443899835	0
0	10882	2800.991479915398	1
0	10884	2802.269978249906	2
0	10888	2807.469990535682	1
0	10893	2807.557866966863	0
0	10908	2809.595759425578	1
0	10910	2810.445088834781	0
0	10932	2813.34845872041	1
0	10933	2813.459549848423	0
0	10941	2814.637228496854	1
0	10943	2815.275601884618	0
0	10957	2817.392980433534	1
0	10962	2818.847019332961	0
0	10998	2829.695049903144	1
0	11000	2830.1853306527	0
0	11031	2838.09845182045	1
0	11033	2838.112772482613	2
0	11034	2838.213624583957	1
0	11042	2838.844770334997	0
0	11051	2839.513135906001	1
0	11052	2839.79535346337	0
0	11058	2840.01007435668	1
0	11061	2843.699878663155	0
0	11072	2844.764102040198	1
0	11075	2846.655645892819	2
0	11076	2847.132475080883	1
0	11082	2847.397889193596	0
0	11088	2848.353772690615	1
0	11093	2849.626811654479	0
0	11109	2851.098740300882	1
0	11111	2851.121277506851	2
0	11112	2851.221085952592	1
0	11117	2851.322557793091	0
0	11123	2852.590308563721	1
0	11125	2853.158564249342	2
0	11132	2854.589260201222	1
0	11142	2856.981987914036	2
0	11143	2857.063742004586	1
0	11148	2858.081191169289	0
0	11158	2858.468296396955	1
0	11162	2862.24587727551	0
0	11174	2865.735660542252	1
0	11175	2866.145221654724	0
0	11186	2867.686170764101	1
0	11187	2867.856038007176	0
0	11207	2873.953883152918	1
0	11209	2874.248907231638	0
0	11225	2881.423075450089	1
0	11231	2882.507466430086	2
0	11234	2883.398897631713	1
0	11240	2884.706823313689	2
0	11241	2884.747311317796	1
0	11246	2885.125435915152	0
0	11262	2888.43542533069	1
0	11263	2890.113774060075	0
0	11269	2890.154069093309	1
0	11274	2890.36078267841	2
0	11276	2890.657805968604	3
0	11277	2890.94642746436	2
0	11283	2891.787572705715	3
0	11285	2891.988833266402	2
0	11291	2892.230472240741	3
0	11292	2892.650166436528	2
0	11298	2892.961066020758	3
0	11301	2893.577643086611	2
0	11307	2895.246552302118	1
0	11313	2895.597684360148	2
0	11315	2896.550564966009	1
0	11321	2897.50599354755	2
0	11325	2898.007821408682	1
0	11330	2899.737204027819	0
0	11345	2901.540463954216	1
0	11347	2902.728625106232	2
0	11349	2903.66456918688	3
0	11351	2903.734766449742	4
0	11355	2904.691748951605	3
0	11362	2905.407608832803	4
0	11363	2905.916764765119	3
0	11369	2907.023310135824	2
0	11376	2908.702412042686	1
0	11380	2909.756624281799	2
0	11384	2910.28339718591	3
0	11385	2910.424409956842	2
0	11390	2910.838789808946	1
0	11395	2911.740716966136	0
0	11408	2913.789071655476	1
0	11409	2914.132386293289	0
0	11432	2916.123627556166	1
0	11434	2916.263367536994	2
0	11437	2917.524615905813	1
0	11442	2919.810269943433	0
0	11451	2923.652813148398	1
0	11459	2924.670513634453	0
0	11491	2932.380729941107	1
0	11494	2934.32009778156	0
0	11516	2943.104048384784	1
0	11519	2945.564700967773	0
0	11543	2951.268879640367	1
0	11544	2951.7528211032	0
0	11563	2953.77511148361	1
0	11566	2954.907908721085	0
0	11576	2957.917460112527	1
0	11579	2961.467211430262	0
0	11591	2963.496303265886	1
0	11592	2963.521653015253	0
0	11598	2964.112404654514	1
0	11600	2964.211710577143	0
0	11646	2976.547627122858	1
0	11647	2977.213465718081	0
0	11690	2994.488553557001	1
0	11692	2995.528992972542	2
0	11693	2996.543500532854	1
0	11701	2999.993155136605	2
0	11702	3000.045432800823	1
0	11708	3002.242953692708	0
0	11722	3004.053375759164	1
0	11724	3004.886142807815	2
0	11725	3005.025238235156	1
0	11731	3005.392611605532	0
0	11739	3006.014930679275	1
0	11744	3007.575383813553	0
0	11751	3007.853707092533	1
0	11752	3008.185304040159	0
0	11766	3012.119673229166	1
0	11767	3013.324407119175	0
0	11789	3018.648897055788	1
0	11792	3020.484834853234	0
0	11813	3025.025620541419	1
0	11815	3025.098405972255	2
0	11820	3027.824753828368	3
0	11821	3027.859182596865	2
0	11826	3028.104768697868	1
0	11832	3028.563397503808	0
0	11841	3030.995310174486	1
0	11844	3031.984267534297	0
0	11855	3034.214769361374	1
0	11857	3036.443629861914	0
0	11872	3038.31218533344	1
0	11874	3039.137932192074	2
0	11876	3040.68699212374	3
0	11878	3042.114109774009	4
0	11884	3045.629314093511	5
0	11887	3046.113943621986	4
0	11892	3047.439385459105	3
0	11896	3047.901254035616	4
0	11900	3049.656954379674	5
0	11902	3050.020706170265	6
0	11907	3050.7749839702	5
0	11915	3052.524093735552	4
0	11920	3052.528119764719	3
0	11927	3054.059704899078	2
0	11933	3055.433022265584	3
0	11935	3056.128134431927	4
0	11938	3056.390458207742	3
0	11947	3058.808883634738	4
0	11949	3059.535251457139	3
0	11955	3059.957973085424	4
0	11956	3060.403360481469	3
0	11961	3061.690207006864	2
0	11966	3062.901323821135	1
0	11972	3064.624266120987	2
0	11979	3066.817884508367	3
0	11982	3067.104594685246	2
0	11987	3067.263600906477	1
0	11992	3067.89089970725	0
0	12024	3073.491199691686	1
0	12027	3074.921014727567	0
0	12089	3086.730300605559	1
0	12095	3089.429633431245	2
0	12098	3091.233120070774	1
0	12105	3091.426949101499	2
0	12107	3093.084337526092	3
0	12109	3093.259160810789	4
0	12110	3093.283478694983	3
0	12116	3093.421600960254	2
0	12122	3093.86080295068	1
0	12127	3093.865943976642	0
0	12143	3096.436385639199	1
0	12144	3096.476252229201	0
0	12152	3097.669463147889	1
0	12153	3098.538554774834	0
0	12159	3100.344643890973	1
0	12160	3100.782702365767	0
0	12177	3102.472248403646	1
0	12179	3103.213806705051	0
0	12192	3106.522332109198	1
0	12194	3107.160241589127	2
0	12195	3107.616351210422	1
0	12201	3108.019828668053	0
0	12215	3108.967833535333	1
0	12217	3109.604898309265	2
0	12221	3110.752314813991	3
0	12222	3111.19341883375	2
0	12228	3112.003288185062	1
0	12233	3112.53445646384	0
0	12239	3112.740374399748	1
0	12241	3113.045164626666	2
0	12245	3117.74662167927	1
0	12251	3117.999838385995	0
0	12285	3127.601637568141	1
0	12290	3128.87028152724	0
0	12296	3128.921150740732	1
0	12298	3129.148290038629	0
0	12310	3131.432890391823	1
0	12312	3131.633201807185	0
0	12321	3133.316861403195	1
0	12324	3135.169021091995	0
0	12362	3143.08121277593	1
0	12363	3143.584533424655	0
0	12369	3143.793429397187	1
0	12370	3144.856652841573	0
0	12390	3154.68840197422	1
0	12392	3154.878401123247	2
0	12399	3156.212219133605	3
0	12400	3156.369941912852	2
0	12410	3158.908202318173	3
0	12411	3159.177365554594	2
0	12420	3161.263889702937	3
0	12421	3162.281688424631	2
0	12426	3162.441837950681	1
0	12438	3165.277447448786	0
0	12461	3168.006098170903	1
0	12462	3168.357023056864	0
0	12469	3168.826802989002	1
0	12470	3169.122918331712	0
0	12483	3172.518012376161	1
0	12485	3174.10381376312	2
0	12487	3174.452922133934	3
0	12488	3174.490124307157	2
0	12497	3176.356041192755	3
0	12498	3176.368698937161	2
0	12506	3176.766176824164	3
0	12507	3177.253120874705	2
0	12512	3177.545872319664	1
0	12520	3182.211464362543	0
0	12526	3183.368725340089	1
0	12527	3184.096293443182	0
0	12536	3186.638818378183	1
0	12539	3188.46561127426	0
0	12565	3194.281655585084	1
0	12568	3196.035077095394	2
0	12570	3196.405513047596	3
0	12571	3196.756295321489	2
0	12578	3199.012675086842	1
0	12584	3199.051148693493	2
0	12585	3200.809835550411	1
0	12590	3203.516147875024	0
0	12596	3204.71253361864	1
0	12598	3205.244630779876	0
0	12605	3205.753157150741	1
0	12607	3207.524572219146	0
0	12619	3210.374072905523	1
0	12620	3211.005103102343	0
0	12632	3214.213116555166	1
0	12633	3214.650612859732	0
0	12649	3217.858928427404	1
0	12652	3219.689075901717	0
0	12656	3220.859294201013	1
0	12659	3221.841068715925	0
0	12687	3230.675944582924	1
0	12690	3231.412395947859	2
0	12691	3233.958418686074	1
0	12696	3234.474382745119	0
0	12741	3245.776182557365	1
0	12743	3247.117347918284	2
0	12744	3248.317044516342	1
0	12751	3249.407684283978	0
0	12760	3250.472013718599	1
0	12765	3253.104958734462	2
0	12766	3253.21688834792	1
0	12772	3253.696356952721	0
0	12789	3256.565968306945	1
0	12791	3256.880975125885	2
0	12793	3256.988971945596	3
0	12795	3257.052766282786	4
0	12796	3258.011196500749	3
0	12801	3258.42720956568	2
0	12808	3258.788425708627	1
0	12816	3259.686268224232	0
0	12851	3269.53220906693	1
0	12853	3269.567157617039	2
0	12856	3273.244782383651	3
0	12859	3276.798727788183	2
0	12867	3277.374871822624	1
0	12874	3277.780963239599	2
0	12875	3278.535907783091	1
0	12886	3280.545818479492	2
0	12887	3280.616731728893	1
0	12892	3280.767729984951	0
0	12929	3286.593051136702	1
0	12930	3286.593368334423	0
0	12936	3287.205239070315	1
0	12938	3287.531840633757	2
0	12939	3287.637211110178	1
0	12943	3287.891086648563	2
0	12952	3291.800684818929	3
0	12953	3293.306419129564	2
0	12959	3296.061004891349	3
0	12960	3296.117694779472	2
0	12965	3297.773887248817	1
0	12970	3299.807450277719	0
0	12993	3304.984524647356	1
0	12995	3305.067217992583	0
0	13021	3307.163822747612	1
0	13024	3309.206690848448	0
0	13051	3315.085318460843	1
0	13055	3316.745779294861	2
0	13058	3317.040571915874	1
0	13064	3317.988164159845	2
0	13068	3320.522630486818	1
0	13073	3320.524590717508	0
0	13085	3321.164021611005	1
0	13088	3321.787864484737	0
0	13101	3322.817097369907	1
0	13102	3323.029777983261	0
0	13115	3324.782314534122	1
0	13117	3324.856925232421	2
0	13118	3324.872386495232	1
0	13124	3328.194756997163	2
0	13125	3328.285488292826	1
0	13129	3328.740737111681	2
0	13134	3331.759134155898	1
0	13139	3332.228390431748	0
0	13145	3332.505799173366	1
0	13146	3332.624434916034	0
0	13156	3335.226112497469	1
0	13161	3336.385788798673	0
0	13184	3341.154229851567	1
0	13187	3342.523748613145	0
0	13197	3342.842691528846	1
0	13200	3344.126695504383	0
0	13217	3350.747058237111	1
0	13218	3351.343298506854	0
0	13265	3363.325287263241	1
0	13266	3363.792008039623	0
0	13291	3367.714071774592	1
0	13292	3368.509956384088	0
0	13298	3368.666646984397	1
0	13299	3368.735464443642	0
0	13305	3368.780206675645	1
0	13307	3369.063086033922	2
0	13311	3369.727413151815	1
0	13316	3370.155573610359	0
0	13322	3371.178133230244	1
0	13323	3374.041119033788	0
0	13337	3377.121298537727	1
0	13338	3379.8269970164	0
0	13350	3380.858308373321	1
0	13352	3381.343191548095	0
0	13358	3382.288860886845	1
0	13360	3382.835002259141	2
0	13362	3382.949399104706	3
0	13366	3384.401940009362	4
0	13367	3385.001485586282	3
0	13372	3385.77859382709	2
0	13377	3387.268562060009	1
0	13383	3388.64842770181	2
0	13387	3390.233970455514	1
0	13392	3390.723663800672	0
0	13431	3395.916597188529	1
0	13435	3397.578780757894	2
0	13436	3397.791325124657	1
0	13442	3399.708495800006	0
0	13470	3416.397430161719	1
0	13473	3417.014474351556	0
0	13479	3417.065661389286	1
0	13482	3419.025431627686	2
0	13485	3420.286347116084	1
0	13490	3420.445036664655	0
0	13501	3424.073349680413	1
0	13502	3424.403454110513	0
0	13548	3434.149827120215	1
0	13552	3434.439970436845	0
0	13558	3436.202182537389	1
0	13559	3436.26448771512	0
0	13571	3437.326248944355	1
0	13573	3437.548659231773	0
0	13603	3441.21500472695	1
0	13605	3443.124923475425	0
0	13620	3445.995899262942	1
0	13621	3447.599574001096	0
0	13627	3447.701172758289	1
0	13628	3447.874356686357	0
0	13634	3448.494006926017	1
0	13635	3448.655822321891	0
0	13644	3451.466810386272	1
0	13645	3452.856506759995	0
0	13651	3453.027767563578	1
0	13655	3453.404315841169	2
0	13656	3454.423635778387	1
0	13663	3455.220164645656	0
0	13675	3457.553995883968	1
0	13677	3457.892066590985	2
0	13681	3461.401509730002	1
0	13687	3462.15212260908	0
0	13694	3463.422913434892	1
0	13695	3463.710542913612	0
0	13726	3473.913690279616	1
0	13727	3474.174398268535	0
0	13742	3478.981257022407	1
0	13743	3479.473572845817	0
0	13783	3491.435821140572	1
0	13784	3491.538923860233	0
0	13852	3508.052748646522	1
0	13854	3509.096434108794	0
0	13883	3521.131761069921	1
0	13887	3521.934638809001	0
0	13912	3529.639104038854	1
0	13914	3530.510998367925	2
0	13917	3532.526439875758	1
0	13922	3533.154970603259	0
0	13933	3534.619570249837	1
0	13935	3535.357341047136	0
0	14026	3576.51778343669	1
0	14028	3581.138627030982	2
0	14030	3582.098172240703	3
0	14032	3583.17814778892	4
0	14034	3585.321957045371	5
0	14035	3587.4416354092	4
0	14042	3587.821103422366	5
0	14044	3587.963225206454	6
0	14045	3588.475811778284	5
0	14051	3589.741156198965	4
0	14060	3592.201016020129	3
0	14065	3592.836334181224	2
0	14070	3594.066407186368	1
0	14075	3594.564067984459	0
0	14088	3596.060277497471	1
0	14090	3596.420967231729	0
0	14097	3598.754377695194	1
0	14100	3599.227493353706	0
0	14122	3605.788105933148	1
0	14125	3607.2205299233	0
0	14137	3612.890400998503	1
0	14142	3614.987438752084	0
0	14164	3618.810150530804	1
0	14165	3621.770933420193	0
0	14188	3628.231315437911	1
0	14189	3628.904757017809	0
0	14210	3635.226836229436	1
0	14212	3636.074886765919	2
0	14214	3636.31373833316	3
0	14215	3636.822849888725	2
0	14220	3637.220764836874	1
0	14225	3637.733330316162	0
0	14231	3642.717218645073	1
0	14236	3644.205909323031	2
0	14238	3645.359107892043	3
0	14239	3645.866373179806	2
0	14246	3646.169100668691	3
0	14248	3646.209021319293	4
0	14249	3647.515373270326	3
0	14255	3649.025393993461	4
0	14258	3649.74749104194	3
0	14262	3650.139559190379	4
0	14264	3651.371383359436	5
0	14267	3652.530338032492	4
0	14273	3653.961032563759	5
0	14274	3654.060790835302	4
0	14280	3656.34637962544	5
0	14283	3656.577484946857	6
0	14284	3657.803684193667	5
0	14290	3660.55885566036	6
0	14293	3664.805898015003	5
0	14300	3668.355670084409	4
0	14305	3668.685416251415	3
0	14312	3669.749692765449	2
0	14318	3670.299164688764	3
0	14319	3670.587720049914	2
0	14325	3671.556541458731	1
0	14333	3672.864682556439	0
0	14362	3675.546169775322	1
0	14363	3676.735016956894	0
0	14369	3676.855378099907	1
0	14370	3677.331696523325	0
0	14376	3678.110189798019	1
0	14378	3678.702824140753	2
0	14379	3678.820720910666	1
0	14383	3679.663918195766	2
0	14386	3680.038712898541	1
0	14391	3682.195104732442	0
0	14417	3690.239819708979	1
0	14420	3691.366424531713	0
0	14434	3692.897197294818	1
0	14436	3692.913237361559	2
0	14444	3697.05473265053	1
0	14449	3697.2830375272	0
0	14468	3698.75623621414	1
0	14473	3702.212053940402	0
0	14495	3707.509972884631	1
0	14499	3707.901752864892	2
0	14500	3708.758782194908	1
0	14506	3709.194953572407	0
0	14531	3711.771153929186	1
0	14536	3715.934425117876	2
0	14537	3716.117935182416	1
0	14542	3716.294193372074	0
0	14548	3717.411679691508	1
0	14550	3717.985039937003	2
0	14555	3720.01552741766	1
0	14561	3720.781685602308	2
0	14563	3721.481057979674	3
0	14564	3721.504068736421	2
0	14573	3722.969321279823	1
0	14577	3724.390370985191	2
0	14582	3725.619662536589	1
0	14590	3727.338950029242	2
0	14592	3728.03295860765	1
0	14601	3730.154221759461	0
0	14609	3731.25604897462	1
0	14610	3731.470526623995	0
0	14614	3732.283268050756	1
0	14618	3735.502652864304	2
0	14621	3736.496219233718	3
0	14622	3738.828689289518	2
0	14627	3738.960190139503	1
0	14632	3739.361435666686	0
0	14646	3742.090569161945	1
0	14647	3742.33124041377	0
0	14662	3745.000341062762	1
0	14663	3745.147138869244	0
0	14689	3748.644164182095	1
0	14692	3748.797669192768	2
0	14693	3749.905804292659	1
0	14702	3751.580228414789	0
0	14724	3753.772421615549	1
0	14725	3754.799130980021	0
0	14738	3758.073188861927	1
0	14740	3758.3757307195	2
0	14742	3759.76406854586	3
0	14749	3763.547085722532	4
0	14752	3766.847735789482	5
0	14753	3768.126149686848	4
0	14758	3769.318788384318	3
0	14765	3770.140392796034	2
0	14769	3770.332427842463	3
0	14774	3773.729872704741	2
0	14778	3775.077328818437	3
0	14784	3777.267915640261	4
0	14785	3777.473732219088	3
0	14790	3778.122798220676	2
0	14796	3779.439447000095	3
0	14797	3779.533523701151	2
0	14804	3782.265641891989	1
0	14810	3782.33187554996	2
0	14811	3782.57371762442	1
0	14816	3783.257888970698	0
0	14829	3788.323925935421	1
0	14830	3788.389614795147	0
0	14880	3806.388026667999	1
0	14884	3808.15673655578	2
0	14887	3809.506124305847	1
0	14892	3810.435476273991	0
0	14920	3818.291804799224	1
0	14923	3818.997698552863	2
0	14925	3819.443116486005	3
0	14929	3821.989681895415	4
0	14931	3822.048655707875	5
0	14936	3823.815983560397	4
0	14941	3823.858500621759	3
0	14946	3824.540497877318	2
0	14953	3825.30267009352	1
0	14958	3825.437566321366	0
0	14965	3825.643284661797	1
0	14967	3825.920562348564	0
0	14998	3829.728394646884	1
0	14999	3829.809236740635	0
0	15010	3830.96596138485	1
0	15011	3831.186802131964	0
0	15020	3831.742425912438	1
0	15026	3833.615535702693	0
0	15057	3842.384230189621	1
0	15058	3842.890476501543	0
0	15105	3863.087202661207	1
0	15106	3864.419907720628	0
0	15177	3883.026527388075	1
0	15178	3886.103686760533	0
0	15210	3890.4432324251	1
0	15212	3890.624199871059	2
0	15214	3890.695997108354	3
0	15216	3891.389875586575	2
0	15221	3892.589547468277	1
0	15228	3893.326030346267	0
0	15317	3914.463063013341	1
0	15322	3916.181048698123	2
0	15324	3916.413108066664	3
0	15325	3917.464979375784	2
0	15331	3917.730904503681	1
0	15338	3918.583784832915	0
0	15362	3925.708703220349	1
0	15365	3928.412305403977	0
0	15380	3931.291684857917	1
0	15381	3931.419012039793	0
0	15400	3937.17408069372	1
0	15406	3940.178040432867	2
0	15407	3940.621771573017	1
0	15414	3941.159775188994	2
0	15416	3942.552240704649	1
0	15421	3942.710289875101	0
0	15445	3946.209776193978	1
0	15449	3947.654697122216	0
0	15489	3955.812234659367	1
0	15492	3957.740712877731	0
0	15498	3957.839381166234	1
0	15499	3958.445885185908	0
0	15508	3958.737283702512	1
0	15513	3960.642865548642	0
0	15564	3979.83385164379	1
0	15565	3980.166939421172	0
0	15585	3985.735299351412	1
0	15589	3986.622730200477	2
0	15595	3987.80019033425	3
0	15596	3987.8476721926	2
0	15601	3989.140989782395	1
0	15606	3989.575948104426	0
0	15610	3991.159297368093	1
0	15615	3992.682865523994	0
0	15624	3993.972948820452	1
0	15630	3995.681023091441	0
0	15636	3995.705927859654	1
0	15637	3995.928958778638	0
0	15643	3998.890163196264	1
0	15645	3999.208279520334	2
0	15652	4000.551354459061	1
0	15656	4003.623201427886	2
0	15658	4004.42557514545	3
0	15660	4005.054501329076	4
0	15663	4006.286071490539	3
0	15669	4006.700675830289	2
0	15675	4007.642842290623	3
0	15678	4008.692858739224	2
0	15682	4008.736086015185	3
0	15684	4011.604980154958	4
0	15686	4012.262790645882	5
0	15688	4013.487159297091	6
0	15690	4014.369396066609	7
0	15694	4015.025629330783	8
0	15700	4020.812991162491	9
0	15701	4021.133701283375	8
0	15706	4021.334714511657	7
0	15714	4022.089916242523	6
0	15720	4022.528271528261	7
0	15721	4022.57571087666	6
0	15726	4023.167530898829	5
0	15731	4025.075846998422	4
0	15737	4027.11873398791	5
0	15738	4027.924656519723	4
0	15742	4028.127812419043	5
0	15745	4028.462489791557	4
0	15751	4028.999550308393	3
0	15757	4029.687036242171	2
0	15762	4030.15367535415	1
0	15768	4031.301707906343	0
0	15774	4031.576456798478	1
0	15775	4031.933031248591	0
0	15798	4037.521268609395	1
0	15806	4041.472468099427	0
0	15818	4043.427610655403	1
0	15820	4043.54826203956	2
0	15821	4043.785947312796	1
0	15829	4045.586752319577	2
0	15830	4045.716694489398	1
0	15836	4046.070274237785	0
0	15865	4051.314037515217	1
0	15866	4052.932361879045	0
0	15880	4055.285626165959	1
0	15881	4055.886128601941	0
0	15887	4057.240402809406	1
0	15888	4058.58579277001	0
0	15909	4062.139190504125	1
0	15910	4062.502442097325	0
0	15917	4062.560054137006	1
0	15918	4062.780529477914	0
0	15963	4072.945429377749	1
0	15965	4073.125413868635	2
0	15967	4073.435079274571	3
0	15971	4075.90965918332	4
0	15974	4078.950862824024	5
0	15975	4080.466276505392	4
0	15980	4080.714294569182	3
0	15985	4080.823900787064	2
0	15993	4082.471028645604	3
0	15995	4082.967225225998	2
0	16001	4083.654926621014	1
0	16011	4085.21319715534	2
0	16012	4085.446423561314	1
0	16017	4085.967460154071	0
0	16046	4090.333808037136	1
0	16048	4090.597509221905	2
0	16050	4092.480491935968	1
0	16055	4092.787172118146	0
0	16061	4093.116286823534	1
0	16063	4093.502609622498	2
0	16064	4094.542521331821	1
0	16068	4095.270393516058	2
0	16074	4097.957532447997	3
0	16076	4098.163216631034	4
0	16079	4099.240208446829	3
0	16083	4101.383044214577	4
0	16087	4102.629944042685	5
0	16089	4102.941440560758	6
0	16095	4104.393703781605	5
0	16100	4104.657301807378	4
0	16104	4105.468153705957	5
0	16107	4108.483980334244	4
0	16111	4109.969944782073	5
0	16113	4110.358330486253	6
0	16120	4113.492487436804	5
0	16125	4113.795958269964	4
0	16130	4113.876083440755	3
0	16135	4115.035890601719	2
0	16141	4116.186040829643	3
0	16142	4116.434496038087	2
0	16147	4117.116590972713	1
0	16153	4117.635582411797	0
0	16170	4122.730013353912	1
0	16172	4124.841782444171	0
0	16179	4126.170058332545	1
0	16182	4126.603931326626	0
0	16196	4129.279426527061	1
0	16203	4131.778503329121	2
0	16212	4137.128249932494	3
0	16218	4140.811199490848	4
0	16219	4141.41399034324	3
0	16225	4141.749514978653	4
0	16227	4143.725947598882	3
0	16232	4144.102515949277	2
0	16242	4146.688450848146	1
0	16248	4149.480562107496	0
0	16266	4151.736359582418	1
0	16267	4151.880136396305	0
0	16281	4152.341624984604	1
0	16285	4153.0560650921	0
0	16295	4157.707390428219	1
0	16299	4159.47533435541	0
0	16316	4162.304218022642	1
0	16317	4162.559214157733	0
0	16352	4174.782257962754	1
0	16353	4174.881645751735	0
0	16392	4182.63494969137	1
0	16393	4184.194743005866	0
0	16495	4209.657668001037	1
0	16496	4210.021055526103	0
0	16571	4236.302619433929	1
0	16574	4236.477875350637	0
0	16581	4237.177355679244	1
0	16583	4237.997594245408	0
0	16623	4245.557304866201	1
0	16624	4246.944383245459	0
0	16638	4247.998009280639	1
0	16644	4250.637793335736	2
0	16650	4254.320409736913	1
0	16655	4254.951474168895	0
0	16667	4257.37149376863	1
0	16668	4257.409471343439	0
0	16682	4258.780402686571	1
0	16689	4261.719059661874	0
0	16700	4265.687376864094	1
0	16704	4266.564206272395	2
0	16706	4267.451141874609	3
0	16712	4269.313987801674	2
0	16718	4269.886434858735	1
0	16725	4270.931229102401	2
0	16726	4271.876161283099	1
0	16732	4272.96860075668	0
0	16760	4277.048927385177	1
0	16761	4277.456690529786	0
0	16767	4277.760254169664	1
0	16769	4277.81792105038	0
0	16775	4278.496527599538	1
0	16776	4278.593789068071	0
0	16803	4283.811575309174	1
0	16812	4287.378077597759	0
0	16818	4287.43551868411	1
0	16820	4287.47077816189	2
0	16821	4287.569051651623	1
0	16825	4287.721212493659	2
0	16829	4290.257027757247	3
0	16830	4291.211156524404	2
0	16834	4291.378791087349	3
0	16838	4293.836031871905	2
0	16845	4295.75078656012	3
0	16847	4296.129322034314	4
0	16852	4296.665856350746	3
0	16859	4297.700529385544	4
0	16860	4297.718402249895	3
0	16865	4298.952089972512	2
0	16870	4300.529354440183	1
0	16875	4300.916377966568	0
0	16890	4304.664018502192	1
0	16893	4305.899198509537	2
0	16895	4307.403780683036	1
0	16903	4311.081107896055	2
0	16906	4312.067109988216	1
0	16912	4312.891979396041	2
0	16916	4315.421473596339	1
0	16921	4315.547658739405	0
0	16947	4322.381756483785	1
0	16951	4328.878964198799	2
0	16952	4329.334721806196	1
0	16961	4331.111971067474	0
0	16968	4333.304075117148	1
0	16970	4334.246655521407	0
0	16982	4337.293457958635	1
0	16983	4337.659527443714	0
0	16998	4340.72837337823	1
0	17003	4341.169932169324	2
0	17004	4341.700105006035	1
0	17011	4343.954449063367	0
0	17023	4344.858578066402	1
0	17028	4350.951514985411	0
0	17047	4354.081937934975	1
0	17049	4356.633494559283	2
0	17053	4356.769674490669	3
0	17054	4357.862112060813	2
0	17060	4358.022301548787	1
0	17066	4358.874583383179	2
0	17070	4359.119618302315	3
0	17071	4359.133584763783	2
0	17076	4359.186722744889	1
0	17083	4359.96984999928	0
0	17089	4360.291098938118	1
0	17090	4360.725379134961	0
0	17101	4363.080306470474	1
0	17104	4364.209496903716	2
0	17105	4364.344991161377	1
0	17112	4364.875094950073	0
0	17134	4367.545608838499	1
0	17137	4368.152493828178	0
0	17152	4370.060687369802	1
0	17154	4370.662591967424	2
0	17156	4371.677618688354	3
0	17158	4373.631330227195	4
0	17160	4373.797992152848	5
0	17161	4373.840349054483	4
0	17168	4377.349060544841	3
0	17175	4379.310411359708	4
0	17176	4380.522585303181	3
0	17181	4381.223757503192	2
0	17186	4381.902777253403	1
0	17193	4385.688071248384	0
0	17205	4390.083719719926	1
0	17209	4391.824825637716	0
0	17253	4398.047288665871	1
0	17255	4399.080746637152	0
0	17363	4441.361265514261	1
0	17364	4442.25035449047	0
0	17377	4447.891599648642	1
0	17383	4450.949255878891	0
0	17405	4454.158647191827	1
0	17409	4456.3080071891	0
0	17449	4470.626646685722	1
0	17450	4470.731712976737	0
0	17457	4471.470785571621	1
0	17459	4471.626928347813	2
0	17460	4472.411395827979	1
0	17466	4473.179564956556	0
0	17474	4473.735499533572	1
0	17475	4474.075696991188	0
0	17502	4480.354725504849	1
0	17504	4480.438511163587	2
0	17506	4482.355304851294	1
0	17512	4483.245192359384	0
0	17526	4488.726067449568	1
0	17529	4489.063431070701	0
0	17533	4489.476272210444	1
0	17536	4490.604116434462	0
0	17576	4501.417402064521	1
0	17580	4502.176471269358	0
0	17602	4505.005683711488	1
0	17604	4506.111639025163	2
0	17609	4507.522140991801	3
0	17611	4507.596260250028	4
0	17612	4507.884598788014	3
0	17621	4510.228658745595	2
0	17627	4510.357971251275	1
0	17632	4511.191424038094	0
0	17645	4513.323738149913	1
0	17650	4515.723081641768	0
0	17684	4523.537475167704	1
0	17689	4525.836332902089	2
0	17692	4526.225053236576	1
0	17698	4526.50251199649	0
0	17707	4529.70400859249	1
0	17710	4530.191984321455	0
0	17722	4530.778623958335	1
0	17723	4530.888292423185	0
0	17745	4536.958554098121	1
0	17746	4537.744854421512	0
0	17752	4538.161652708375	1
0	17757	4540.22619290948	0
0	17773	4543.843880831392	1
0	17775	4543.897431174321	2
0	17778	4544.840838198923	1
0	17785	4546.027176857952	0
0	17802	4556.033821078198	1
0	17810	4557.449470820769	2
0	17812	4558.36398472777	3
0	17817	4560.678571530344	2
0	17822	4560.774179542938	1
0	17828	4560.85600709251	2
0	17829	4561.328919455553	1
0	17837	4563.082744718563	0
0	17899	4571.320649892036	1
0	17903	4572.293276586241	2
0	17905	4573.835153907135	3
0	17906	4574.865826593967	2
0	17912	4574.883533332767	3
0	17913	4575.751798545466	2
0	17919	4575.811314818999	3
0	17921	4576.314869455697	4
0	17923	4576.929106585698	5
0	17924	4577.150406792848	4
0	17934	4580.102474587677	3
0	17940	4580.588220618474	4
0	17941	4580.89922304335	3
0	17947	4581.856503230719	4
0	17950	4583.281951783883	5
0	17951	4583.39433724657	4
0	17957	4584.674509176717	5
0	17959	4584.810722499339	6
0	17965	4587.390295458165	7
0	17966	4588.516734156921	6
0	17970	4589.282703890943	7
0	17975	4589.924447015387	6
0	17980	4590.278366284556	5
0	17986	4590.674419565571	4
0	17991	4591.725567092345	3
0	17995	4591.915206037677	4
0	17997	4592.767159689012	5
0	18003	4594.68286023572	4
0	18008	4595.152209276081	3
0	18016	4596.77701824874	4
0	18018	4598.222061552549	3
0	18025	4599.365114230877	4
0	18026	4600.007764356897	3
0	18033	4600.332517091497	2
0	18038	4600.693840750181	1
0	18044	4601.226790713544	2
0	18046	4601.334557986551	3
0	18049	4601.722142050059	4
0	18051	4601.933384272517	5
0	18052	4602.843248790394	4
0	18057	4603.175374847063	3
0	18062	4603.747730677866	2
0	18069	4606.131438145017	3
0	18071	4607.315327519111	4
0	18074	4608.176453522836	3
0	18083	4609.676752587637	4
0	18084	4609.793121417721	3
0	18089	4610.225119184237	2
0	18098	4611.183886355394	1
0	18104	4611.410564172902	0
0	18116	4613.658965844525	1
0	18120	4614.493079975474	0
0	18132	4615.809843615627	1
0	18133	4616.04895755952	0
0	18144	4616.867448121426	1
0	18146	4616.94743474615	2
0	18150	4620.149914079088	1
0	18155	4620.427984638346	0
0	18176	4628.480905520415	1
0	18177	4629.057272047193	0
0	18203	4633.288344076967	1
0	18206	4634.942421959845	0
0	18224	4638.168291364644	1
0	18226	4638.779422483911	2
0	18228	4638.903489376874	3
0	18229	4640.221799417215	2
0	18237	4641.922284672689	1
0	18245	4642.484534030692	0
0	18257	4643.829684474285	1
0	18260	4643.992748897554	0
0	18272	4645.298469878527	1
0	18275	4646.718517555295	0
0	18284	4647.586372206674	1
0	18291	4648.674444256057	2
0	18294	4649.757082772344	1
0	18300	4651.906092596008	0
0	18326	4657.429891689489	1
0	18331	4658.597580496927	0
0	18338	4659.377518766944	1
0	18340	4660.197319449933	2
0	18341	4660.513977582795	1
0	18347	4661.944083578604	0
0	18370	4668.084975494135	1
0	18377	4669.612122198897	0
0	18400	4677.19448482626	1
0	18402	4678.536956670985	2
0	18404	4679.612767562032	1
0	18412	4680.464331882759	0
0	18418	4680.562293892124	1
0	18420	4680.611249927455	2
0	18422	4681.711060646224	3
0	18423	4681.721713331461	2
0	18428	4684.714641697877	1
0	18434	4685.272584369184	2
0	18435	4685.85977932428	1
0	18440	4687.708259976337	0
0	18449	4688.998457058565	1
0	18450	4689.402681612205	0
0	18482	4694.910979305768	1
0	18483	4694.960418951447	0
0	18492	4696.314767203918	1
0	18497	4698.615529850827	0
0	18549	4720.658112572955	1
0	18551	4722.093146977812	2
0	18553	4722.62123699346	3
0	18555	4722.679078883492	4
0	18556	4725.112883537895	3
0	18561	4725.150161127347	2
0	18567	4726.057381354804	1
0	18573	4726.887684025024	0
0	18586	4733.010314746054	1
0	18588	4734.869187658176	0
0	18602	4737.378652215273	1
0	18603	4737.491811535506	0
0	18611	4741.678933468647	1
0	18612	4741.828330655047	0
0	18616	4741.86473504522	1
0	18621	4745.943860161196	0
0	18628	4746.521798285629	1
0	18630	4746.53793301816	2
0	18631	4746.658409180417	1
0	18636	4746.6838870793	0
0	18655	4748.961655247953	1
0	18658	4749.567959416771	2
0	18661	4749.99737231349	3
0	18662	4750.103813388092	2
0	18672	4750.97713953655	3
0	18674	4751.44089967686	2
0	18679	4751.462208435382	1
0	18686	4755.228227466996	0
0	18697	4757.670968090464	1
0	18698	4758.463256325663	0
0	18733	4769.93954029411	1
0	18736	4770.340571487549	2
0	18737	4771.090153206224	1
0	18743	4771.335342288118	2
0	18744	4771.881924382821	1
0	18750	4772.195244027303	0
0	18756	4773.261276823193	1
0	18758	4774.013507221043	0
0	18839	4801.753866021827	1
0	18845	4804.71467435777	2
0	18848	4806.07174747935	1
0	18854	4806.330819077495	2
0	18855	4806.8287398408	1
0	18860	4807.234658182565	0
0	18864	4807.677832065408	1
0	18866	4807.693799080775	2
0	18868	4808.261998237746	3
0	18872	4809.654127664945	4
0	18873	4810.309632700573	3
0	18877	4810.76911174342	4
0	18880	4812.660101931766	3
0	18884	4813.712207740103	4
0	18890	4816.341909908328	3
0	18896	4816.80758914677	4
0	18897	4817.1289613934	3
0	18902	4818.265682630412	2
0	18908	4818.997533219918	1
0	18914	4819.654577190838	2
0	18917	4821.797596700667	1
0	18921	4824.688765073163	2
0	18925	4828.493929434119	3
0	18926	4828.713091895896	2
0	18930	4829.562891050489	3
0	18937	4837.379533919979	4
0	18938	4840.081311466363	3
0	18944	4840.904395638456	2
0	18949	4840.953414158933	1
0	18953	4841.28111478468	2
0	18955	4841.389944107615	3
0	18961	4842.725983694194	2
0	18968	4844.034431362095	1
0	18973	4844.741397523873	0
0	18987	4848.885820913676	1
0	18988	4849.517639650176	0
0	18999	4850.027319826833	1
0	19000	4850.300165430097	0
0	19007	4852.500904639384	1
0	19008	4853.189379834369	0
0	19023	4856.764668993464	1
0	19024	4857.516805664801	0
0	19035	4859.544202741057	1
0	19039	4861.1430564178	0
0	19048	4863.292320006564	1
0	19050	4863.616356740807	2
0	19054	4866.010775734298	3
0	19055	4866.693672877916	2
0	19061	4867.696758094738	1
0	19067	4868.548026297221	2
0	19069	4869.04344423631	3
0	19071	4869.463190012846	4
0	19073	4871.133832866769	3
0	19079	4871.641143154075	2
0	19087	4872.09780778846	3
0	19089	4872.561070833306	2
0	19094	4872.581584111171	1
0	19099	4872.842693996421	0
0	19122	4876.047140880199	1
0	19126	4878.00223532118	0
0	19132	4878.751577273242	1
0	19136	4879.095111666295	2
0	19137	4879.179699869236	1
0	19144	4880.196976465947	2
0	19146	4880.384131701595	3
0	19149	4880.979352948729	2
0	19154	4881.033041149022	1
0	19162	4882.521673081258	0
0	19176	4883.484886809791	1
0	19177	4883.7733195072	0
0	19200	4886.578460374517	1
0	19202	4887.082406567789	0
0	19217	4891.211473839292	1
0	19219	4891.232382345088	2
0	19221	4892.151737619152	1
0	19226	4892.289043026534	0
0	19263	4902.438698912758	1
0	19265	4905.328005958563	2
0	19269	4907.65744349603	3
0	19270	4909.383367412629	2
0	19276	4909.385974278255	3
0	19277	4909.837657539421	2
0	19282	4910.650464631909	1
0	19286	4910.772405609187	2
0	19288	4910.804940854408	3
0	19291	4911.679883988062	2
0	19300	4914.04791767642	1
0	19306	4916.757663538265	0
0	19317	4917.435190382992	1
0	19318	4919.949580456362	0
0	19346	4923.220163547322	1
0	19352	4924.155899700772	2
0	19354	4924.161497221986	3
0	19355	4924.362692804267	2
0	19361	4926.091837514725	3
0	19368	4927.758853564968	4
0	19370	4927.944367055196	5
0	19374	4929.067676425539	4
0	19379	4929.289530011429	3
0	19385	4933.684657827373	4
0	19387	4934.345479825669	5
0	19392	4937.602299268541	4
0	19397	4937.807239468787	3
0	19402	4937.839869178922	2
0	19411	4939.460734298066	3
0	19415	4939.919884324551	2
0	19420	4940.922021612709	1
0	19434	4944.52168852318	0
0	19452	4947.232399740969	1
0	19453	4948.151175634867	0
0	19490	4953.919870842083	1
0	19491	4954.456897337686	0
0	19508	4956.943252854963	1
0	19509	4957.491789419135	0
0	19515	4957.665450221969	1
0	19516	4958.5007709701	0
0	19526	4959.516005155673	1
0	19527	4959.692759266404	0
0	19548	4967.003656898675	1
0	19549	4967.984807745263	0
0	19572	4972.855540671537	1
0	19576	4974.340085576431	0
0	19598	4981.244378427636	1
0	19601	4981.941673891892	0
0	19624	4985.994687689027	1
0	19629	4987.512130376034	0
0	19673	4994.446271804309	1
0	19675	4997.68149562172	2
0	19677	4998.039585014704	3
0	19678	4998.442913662674	2
0	19683	4999.24902244627	1
0	19691	4999.487450971084	0
0	19700	5001.371456104414	1
0	19704	5002.904652469411	0
0	19717	5004.745192695704	1
0	19726	5011.767509691226	2
0	19728	5012.044870315085	3
0	19730	5012.294019183587	4
0	19731	5012.397730161257	3
0	19737	5013.069372892848	2
0	19743	5013.952613814004	1
0	19749	5014.861035634832	2
0	19750	5015.575651151899	1
0	19760	5017.437858037208	0
0	19773	5018.903441368895	1
0	19775	5019.29501045063	2
0	19776	5020.081155657043	1
0	19781	5020.678423336827	0
0	19826	5029.106871409636	1
0	19827	5029.166079923692	0
0	19833	5030.243484154083	1
0	19834	5030.640025120758	0
0	19841	5031.592977603573	1
0	19843	5031.716197586164	2
0	19845	5033.016158035208	1
0	19851	5033.756198944819	0
0	19871	5038.729952456105	1
0	19873	5038.758763540397	2
0	19875	5038.823410542155	3
0	19878	5041.322437886612	4
0	19880	5041.609204855527	5
0	19881	5041.787158509433	4
0	19886	5042.403882110691	3
0	19894	5047.38444240591	4
0	19896	5048.027851207671	5
0	19897	5048.113829386181	4
0	19905	5049.307886885135	3
0	19911	5049.947658473012	4
0	19912	5051.151770982854	3
0	19920	5054.353808967408	2
0	19925	5054.847585798068	1
0	19930	5058.025683876726	0
0	19936	5060.144093651612	1
0	19939	5060.487255454725	0
0	19983	5065.413820722175	1
0	19984	5066.800152627896	0
0	19993	5067.519463571725	1
0	19997	5068.26132125867	2
0	19998	5068.408556164981	1
0	20003	5068.608502689335	0
0	20017	5073.657143980683	1
0	20018	5073.710754323346	0
0	20029	5074.337336500222	1
0	20031	5075.597157103804	2
0	20035	5076.085691538115	3
0	20039	5078.605847767036	4
0	20041	5078.733562443021	5
0	20044	5079.488858137104	4
0	20050	5080.460774494144	5
0	20052	5081.497046903977	4
0	20059	5082.186501901174	5
0	20062	5083.648883080284	4
0	20069	5084.096448215267	5
0	20070	5084.579779026778	4
0	20078	5085.182713535175	3
0	20083	5085.355963818542	2
0	20092	5087.351687509574	1
0	20098	5091.115297630666	0
0	20132	5099.888097742263	1
0	20133	5100.766149689197	0
0	20183	5112.403316372357	1
0	20184	5112.569030771084	0
0	20264	5141.966648202919	1
0	20265	5143.3204843539	0
0	20287	5145.966493188701	1
0	20289	5147.330190831113	2
0	20293	5149.516125131464	1
0	20299	5150.511697234775	2
0	20300	5150.58588751993	1
0	20304	5151.40835024714	2
0	20309	5152.453402668543	1
0	20315	5152.539754103161	2
0	20318	5153.21256914558	3
0	20319	5153.579324923842	2
0	20324	5154.350563523513	1
0	20330	5154.53366689171	2
0	20331	5154.884721666595	1
0	20339	5156.067214084116	0
0	20345	5156.257497517411	1
0	20347	5157.288254959314	2
0	20348	5157.613747288568	1
0	20354	5158.871854889315	2
0	20355	5159.235143760614	1
0	20359	5159.310137272828	2
0	20362	5160.777541604261	1
0	20371	5163.578748917124	0
0	20409	5172.186087388506	1
0	20410	5172.95613021318	0
0	20422	5176.324816879068	1
0	20423	5177.174309725977	0
0	20429	5178.207356478724	1
0	20432	5178.527619406628	2
0	20433	5179.125144410896	1
0	20438	5179.420393685912	0
0	20442	5181.456037627396	1
0	20447	5183.05752412277	0
0	20453	5183.130806060751	1
0	20454	5183.196624938355	0
0	20460	5184.801524503742	1
0	20462	5185.280647520091	2
0	20464	5185.595687271395	3
0	20465	5186.127303010301	2
0	20472	5187.308836303166	1
0	20477	5187.951351121607	0
0	20483	5189.90656099256	1
0	20485	5189.926017137162	2
0	20487	5190.581536515957	3
0	20489	5190.738499575785	4
0	20491	5191.127514828108	5
0	20494	5191.197511268926	4
0	20501	5192.601821391025	3
0	20505	5192.917043670466	4
0	20511	5193.515897977844	5
0	20512	5194.340661527976	4
0	20518	5194.793710646761	5
0	20520	5195.00094182603	6
0	20522	5195.185381104906	7
0	20525	5195.394664432472	6
0	20531	5196.359197908587	5
0	20537	5196.845272521999	6
0	20539	5197.538148131363	5
0	20544	5200.138188367846	4
0	20549	5200.363037284125	3
0	20554	5201.514428838712	2
0	20563	5205.233100320507	1
0	20569	5206.037359317577	2
0	20571	5207.430129866741	1
0	20577	5208.932102844571	2
0	20578	5209.233634488188	1
0	20584	5210.332266725086	2
0	20585	5210.450558998898	1
0	20591	5213.623506919241	2
0	20592	5214.076235212619	1
0	20597	5215.484895494134	0
0	20608	5216.845273242737	1
0	20611	5217.81230804669	2
0	20615	5218.517308833319	3
0	20617	5218.860910381008	2
0	20622	5219.194776890378	1
0	20627	5220.116796754583	0
0	20638	5221.642525853193	1
0	20640	5222.429210699376	2
0	20642	5222.744248293946	1
0	20647	5224.044162162876	0
0	20678	5232.162706449203	1
0	20679	5232.274599759749	0
0	20698	5234.203574135433	1
0	20701	5235.188209281689	0
0	20707	5235.799564687782	1
0	20711	5238.074070081335	0
0	20730	5244.902193479295	1
0	20732	5248.139780888642	2
0	20735	5248.545290959091	1
0	20740	5249.838483616222	0
0	20753	5252.691367727964	1
0	20754	5253.249766715079	0
0	20767	5256.555553809767	1
0	20771	5258.394117474056	2
0	20773	5259.238799461303	1
0	20784	5261.081500775679	2
0	20785	5261.56773374093	1
0	20792	5262.627442650397	0
0	20807	5267.174267869244	1
0	20813	5269.957695310368	0
0	20826	5273.284867182814	1
0	20827	5274.271226767053	0
0	20844	5277.794113303927	1
0	20845	5278.02864598878	0
0	20853	5279.032144062439	1
0	20855	5279.446316003885	0
[...]
4	113138	27730.184042257197	4.418890085754
4	113149	27732.862186796167	6.479048278502
4	113156	27734.490659718941	6.161226752012
4	113161	27734.662483722194	6.184742091162
4	113170	27740.170787661903	6.554678866914
4	113185	27742.520530029569	7.598860301805
4	113207	27745.036276474743	2.063335795757
4	113215	27746.425479489647	3.238385491096
4	113224	27749.730541412149	4.470340597373
4	113263	27757.171917801404	7.104569672112
4	113270	27760.866764331489	5.125422591894
4	113283	27767.541652255501	10.71345824784
4	113342	27773.95568465029	15.485674525405
4	113362	27778.826222609702	12.34973701816
4	113440	27793.290986299688	24.285587219654
4	113484	27804.716744231992	35.622218826853
4	113501	27808.762847677154	39.364432565881
4	113538	27818.760997754289	48.649576759034
4	113546	27819.147826000668	41.746147387849
4	113557	27821.284148119304	37.647434266537
4	113582	27827.432094466257	42.441056558218
4	113606	27832.562517291182	46.201090823465
4	113611	27833.040692798912	46.178762246664
4	113618	27836.476863192103	29.316049761523
4	113629	27839.439959489392	32.248866437631
4	113636	27839.886475720564	29.558056393967
4	113648	27842.441745007282	23.347424713547
4	113657	27843.684918304866	23.73980894232
4	113668	27845.231098033538	22.473819601629
4	113673	27846.360215527119	20.043569063179
4	113680	27850.260267401341	21.546164123654
4	113691	27852.597341110874	22.640351513191
4	113707	27858.638397260408	27.534842240383
4	113742	27866.104751007543	23.5088726284
4	113753	27867.317289398912	11.428914560402
4	113760	27869.10307127687	7.388124268187
4	113764	27869.520577674568	3.441183786366
4	113771	27870.77554780188	1.184250404677
4	113835	27883.812450104357	4.608148553862
4	113885	27898.308339099927	5.521413348802
4	113898	27901.257251565085	8.410984932861
4	113961	27922.976930654524	29.949384445468
4	113977	27925.560715617724	30.165424300938
4	113985	27926.277846490238	29.427704898677
4	113992	27926.831403697523	23.098257831375
4	113999	27927.310651829569	18.438575030739
4	114016	27929.48291825329	20.030264186456
4	114075	27944.417571737111	34.752298274895
4	114082	27946.814064498429	29.459625827634
4	114174	27967.943799615125	41.240343035112
4	114183	27972.577759776989	41.112688009856
4	114192	27975.809946288978	36.711086866713
4	114212	27980.046459039	36.739869292876
4	114229	27985.176380421413	33.18098686396
4	114301	27998.545360835846	41.79042450706
4	114306	27999.413959320475	41.610920213773
4	114311	28002.006552316818	38.976321162753
4	114319	28002.692318810574	38.576338402261
4	114333	28003.914197731319	36.89335819757
4	114339	28004.86419875521	33.882125296334
4	114344	28005.353410758488	27.264969393668
4	114350	28005.73632145325	22.472636936929
4	114357	28007.209900320269	11.19398045678
4	114378	28011.576753756486	13.164918203094
4	114383	28011.619040288559	13.121321134999
4	114398	28015.802618574957	12.845373226246
4	114433	28027.313873325771	13.586996411534
4	114443	28028.24861964466	1.709689544464
4	114450	28028.698044464478	0.400421468962
4	114468	28034.478148067163	3.62743125495
4	114592	28055.68964174743	21.301343574361
4	114597	28056.662862689262	18.448313975175
4	114605	28058.558480361699	17.74150870242
4	114628	28064.561628210261	14.992480486077
4	114967	28141.155453656398	89.819947494247
4	114972	28141.630848329924	85.972215759249
4	114982	28144.235978510239	76.619558057619
4	114990	28146.688496650348	73.779881679758
4	114995	28147.218621798169	72.665983799277
4	115006	28155.591640259877	71.806856596293
4	115044	28159.93816235939	69.329180087276
4	115059	28163.094631300594	71.775714697346
4	115167	28188.027667166772	95.968673980876
4	115172	28189.570315995315	92.344399897321
4	115177	28191.046183491003	92.087420116611
4	115188	28193.714334114819	93.448528731636
4	115233	28197.869841072465	85.579665492174
4	115251	28200.15727555956	85.286598890548
4	115268	28205.771141575773	79.256240798337
4	115274	28207.868819030869	72.752417136632
4	115279	28208.069536709067	66.152893500898
4	115290	28209.70463409564	66.063179593105
4	115307	28214.400476381626	68.350291317329
4	115316	28216.388156902584	55.844657181909
4	115332	28218.606432975547	56.532202533811
4	115342	28220.050559456258	51.581598956523
4	115388	28226.175345093223	51.239978324317
4	115399	28228.170477009455	50.847465885183
4	115415	28232.834073351032	52.048174430719
4	115442	28238.389332572619	56.82688141346
4	115454	28241.992324169642	60.006153740723
4	115459	28242.27596666014	47.970285533236
4	115464	28242.360168659278	41.758289699562
4	115471	28245.027057223875	40.73799546802
4	115478	28246.251723970819	37.883678571031
4	115485	28249.393578641499	27.978440658704
4	115492	28251.597024459482	19.828032736131
4	115499	28253.847798608172	22.028340000685
4	115504	28255.694831914941	20.838224550991
4	115509	28255.869737127741	12.259974853806
4	115514	28257.540277034504	11.661897138348
4	115525	28262.40791945859	15.542668779046
4	115631	28284.152297240985	33.642094656596
4	115652	28290.164718503143	37.747262854725
4	115671	28293.097100878229	29.010913825432
4	115676	28293.433417870274	23.345460980934
4	115685	28295.82340659506	21.021773318857
4	115696	28297.345806850736	22.108131354818
4	115705	28301.515100348054	25.249521307975
4	115824	28325.554667049939	47.441355667503
4	115861	28332.245224466259	49.404656884295
4	115866	28333.517790302445	48.853220020193
4	115888	28338.482285776683	48.586525671626
4	115910	28343.574545348709	51.991455879368
4	115925	28347.319329771937	52.026444010442
4	115947	28351.833350100024	41.891426022123
4	115952	28352.578391009314	41.977367919513
4	115961	28353.330136517916	41.624559270218
4	115971	28353.540749673036	30.578112274594
4	115976	28354.812230106931	31.177254122685
4	115981	28355.387548122869	31.498596415944
4	115988	28357.492715992007	30.514581652349
4	115999	28357.594637526317	30.097926151548
4	116005	28359.113381569524	29.661724703604
4	116017	28367.142817216927	29.997049202823
4	116045	28369.623693534912	32.381287792136
4	116078	28373.660066087518	36.008531068484
4	116086	28375.468264166038	37.748384445259
4	116096	28377.060960562055	38.940643112628
4	116114	28378.36381395294	37.52966442343
4	116121	28381.474940899979	36.918317947537
4	116141	28387.839694302801	34.880654124363
4	116170	28393.200465692613	25.150806684468
4	116184	28397.38945014163	19.237256803669
4	116191	28398.983763476784	16.742393510624
4	116205	28402.001132793097	19.439234193754
4	116210	28402.730054970396	12.714889070611
4	116219	28406.484484635256	9.893874889761
4	116348	28441.61142186188	29.046945500413
4	116402	28451.925771809727	39.055655488839
4	116411	28452.382612566261	37.338570682473
4	116432	28456.096580442649	35.965515211984
4	116438	28456.672193423951	19.362802617326
4	116443	28456.710755290081	17.859933435768
4	116449	28457.911591009952	18.735821623771
4	116458	28459.786661072766	19.942751886562
4	116470	28460.531824615137	17.043305364738
4	116479	28464.215796649126	16.910002839398
4	116510	28469.772385786068	20.881989117875
4	116526	28471.356925471985	22.123474324847
4	116594	28486.441656520516	34.787644374298
4	116605	28487.794068615393	32.732153854758
4	116612	28490.193123036663	30.568241785365
4	116627	28491.964593155771	29.639159685641
4	116639	28496.136624179792	29.172300018619
4	116660	28497.879856160316	30.653014407022
4	116667	28498.95327309638	28.081524061892
4	116679	28503.646514548987	28.891297829977
4	116692	28507.192773528074	31.499812652635
4	116704	28509.841604904127	30.345086707318
4	116709	28511.265803874261	26.886302966268
4	116714	28512.951392955555	27.453328266246
4	116723	28515.594154234084	25.077250883814
4	116739	28519.672171180761	28.867238417083
4	116746	28522.954986196631	25.030432740354
4	116760	28526.419725993378	24.788458757671
4	116781	28530.248767381277	15.404384249469
4	116786	28531.174242890457	14.867103286861
4	116792	28532.038986701078	15.658851664941
4	116797	28537.180376747042	10.777160591186
4	116809	28538.334245750784	1.065154961326
4	116823	28541.113177445109	3.119110477429
4	116839	28548.921139632413	9.769223590158
4	116859	28552.375145536346	11.14149252538
4	116864	28552.749119005035	8.407021072524
4	116873	28555.778370533409	8.918612553476
4	116892	28557.530405850196	7.651564945831
4	116899	28558.781627622066	1.414564824208
4	116920	28569.743444953838	11.884362413847
4	116954	28577.187766744535	13.750083134424
4	116979	28583.504590885385	16.872652394868
4	116984	28585.996356366069	19.315198178586
4	116988	28586.525768713438	15.450624975107
4	117006	28591.396313812457	1.957373018336
4	117010	28591.704813570814	1.639484970047
4	117035	28599.113103982292	1.211062869297
4	117042	28603.193631336373	0.815453253657
4	117063	28610.460168530685	1.495004278326
4	117077	28612.382018016779	3.409281673366
4	117090	28615.78935283031	0.238080164643
4	117107	28625.921318478086	1.585063512955
4	117114	28629.177895567754	0.362103756578
4	117126	28632.709044151457	1.811781423662
4	117138	28639.435442079641	8.075656340045
4	117155	28641.324678765263	9.240690839655
4	117166	28652.808742088956	18.291208630331
4	117195	28659.117069120787	11.624044927471
4	117223	28663.042241092281	0.259218538819
4	117252	28666.418689062042	2.201043651427
4	117263	28667.251273131366	2.643724318085
4	117270	28668.773652510146	2.863118564367
4	117344	28684.970211227057	0.414033078629
4	117378	28690.363643996363	2.864469870141
4	117397	28695.932902718888	1.467889141595
4	117418	28699.600326260049	0.676182135799
4	117434	28703.070032148094	0.057030553906
4	117449	28706.409604282103	0.803620484528
4	117468	28708.238470087778	0.654579602988
4	117483	28711.814982249641	4.091164769687
4	117533	28723.634115121611	14.124729704876
4	117550	28726.264935367456	16.312246574177
4	117557	28727.33738482714	16.217937183335
4	117598	28735.791728625382	21.341035832788
4	117791	28777.794701454806	48.816779828608
4	117805	28783.107644129558	53.415423097851
4	117813	28783.827121401368	51.321205493374
4	117830	28788.886231012897	54.826973750549
4	117856	28795.51493264923	58.172561876587
4	117861	28795.761315475148	50.06051878037
4	117871	28798.973819100654	51.658720318484
4	117878	28801.468714408468	52.941380990491
4	117893	28810.917558362231	60.664655292808
4	117914	28815.475878808296	61.716790668101
4	117920	28822.495205284786	58.325080931375
4	117937	28826.678847395634	60.758522139937
4	117976	28834.935797369169	66.743491676664
4	117989	28839.339743209299	69.04114356445
4	117996	28840.114017143216	66.747195904053
4	118003	28842.624697290535	69.200386960525
4	118016	28844.252242098435	62.051303777802
4	118030	28846.816615155836	62.078803657019
4	118045	28851.167497234408	54.881428869217
4	118066	28856.292876738181	59.597173154814
4	118114	28862.098620165202	62.665167522788
4	118125	28864.944521104461	63.183988594331
4	118245	28903.365058470137	100.75741488176
4	118253	28904.736206451905	99.819687849672
4	118265	28910.097018684747	98.109240166143
4	118270	28910.887518731531	97.058178383372
4	118277	28914.984655199442	92.487753510624
4	118363	28937.944652324326	114.00063930743
4	118368	28937.969379390575	113.82464918544
4	118381	28942.486323728925	117.96111139331
4	118399	28946.673775291352	114.98765887558
4	118404	28947.422137584122	114.37780862624
4	118415	28952.478094604506	113.65179028898
4	118469	28958.89527609262	119.14529156919
4	118476	28961.217617500713	113.29299273373
4	118481	28963.459933486243	112.11840752152
4	118488	28965.699342793569	111.5404633617
4	118502	28968.617642929327	112.66021615343
4	118522	28970.354990003451	106.47272712359
4	118527	28970.617647547922	95.808506815899
4	118535	28971.95441601967	95.005740301689
4	118540	28972.395001524455	76.710420487757
4	118552	28975.964292503788	72.804666953698
4	118575	28979.125027290353	63.34109893042
4	118585	28982.116024555955	65.292721861221
4	118604	28984.796551324582	67.53366981702
4	118609	28987.07825271926	66.131542665345
4	118616	28990.269822189836	69.1223858698
4	118627	28991.643729332232	69.479169210132
4	118632	28991.919208769122	69.220193466795
4	118639	28994.900503389755	70.629778980793
4	118662	29001.717365845869	76.458071855394
4	118714	29016.947024797612	91.015656476984
4	118719	29016.95016478767	82.074042024698
4	118725	29018.629962038357	78.606503774993
4	118730	29019.410942229237	49.404569114087
4	118741	29022.190347729956	50.612403743896
4	118765	29025.044758899893	48.085694074095
4	118773	29025.876661710768	26.394878168732
4	118921	29060.06547498981	59.639479827038
4	118931	29062.99169533374	62.296498479157
4	118963	29068.500155554421	65.74068784762
4	118968	29068.658440314796	55.689343025097
4	118977	29070.501434562562	51.023849990129
4	118997	29075.948285395034	45.997660977396
4	119089	29091.525623001081	52.727526917597
4	119096	29093.554352648995	37.077423181769
4	119106	29094.120166168351	30.816321201074
4	119113	29095.004772784548	30.969394308725
4	119122	29098.617791014433	32.108950548351
4	119307	29143.829338909556	74.200224292445
4	119314	29144.191504272676	73.328323436642
4	119325	29149.084076857692	77.739275127356
4	119447	29176.0298613485	101.61861733118
4	119454	29176.64439481459	97.640549389474
4	119469	29179.706789671928	96.75763165305
4	119494	29186.36558639945	103.39183562502
4	119519	29188.2559714972	99.696275061245
4	119535	29192.411859729704	101.9669527246
4	119575	29195.439389919113	100.5351223124
4	119580	29195.659958681243	93.572424349454
4	119588	29202.510745035712	97.249430805747
4	119601	29202.781198221535	97.160181291177
4	119624	29210.315163466493	93.245935986162
4	119885	29257.930540534227	122.67809723618
4	119891	29258.783776381834	114.76843791222
4	119900	29261.35138383404	116.69751203533
4	119910	29263.824597311888	115.4715367035
4	119936	29266.010181799526	96.797277027542
4	119956	29267.428220369121	92.212986108518
4	119965	29272.378629888447	83.277993660627
4	119978	29272.674429201862	78.814388344685
4	119984	29275.085972841764	80.562073573872
4	119997	29281.550827441998	78.854592324471
4	120117	29298.325193475268	87.087535368812
4	120123	29299.46761255398	63.238948137958
4	120131	29302.886084690418	62.130762473514
4	120144	29303.742926817114	57.738473363514
4	120151	29308.098764290845	61.949347532745
4	120165	29311.622023863957	63.761273557476
4	120192	29320.858141825269	72.915243601938
4	120205	29325.405305888774	75.030809108088
4	120217	29330.909611973463	78.162823243688
4	120230	29334.012520531704	78.338400747266
4	120239	29339.023878351323	82.995724171482
4	120250	29341.975485677956	74.549152866672
4	120257	29343.848881961747	71.271937500762
4	120268	29345.798401739133	69.390027006921
4	120273	29346.79178108899	67.286468787688
4	120278	29348.127924731736	64.886020855861
4	120283	29349.968107084105	64.772494857609
4	120296	29354.347442736597	63.540261204757
4	120330	29362.464293789675	68.003463382932
4	120349	29366.742723304006	71.740003310142
4	120359	29370.632455512455	73.42074274251
4	120387	29377.576147223418	74.559173880785
4	120392	29377.797654885289	70.830192511844
4	120407	29379.680278368679	70.391754297002
4	120459	29395.708590992826	82.241265376997
4	120469	29395.921151208008	58.354132547159
4	120477	29397.289482102567	46.101942573447
4	120483	29399.085274764742	35.628786687853
4	120490	29399.721195288772	34.764669210946
4	120507	29402.686266544075	36.710048623445
4	120545	29408.043504125917	41.945488479864
4	120571	29416.216247359796	41.963804886195
4	120583	29418.821277089593	42.604381704868
4	120605	29421.716575650066	42.678326420116
4	120617	29425.590913703835	41.576859963607
4	120634	29428.937947339591	38.809347143023
4	120640	29431.306164826816	41.027382954702
4	120647	29434.048009731958	33.726583837645
4	120652	29435.15179989332	34.103537357314
4	120659	29438.281990515252	32.648051572598
4	120670	29438.744499407704	19.406477483477
4	120676	29440.671677093358	17.210565566806
4	120687	29442.907351070355	8.92080118031
4	120881	29480.978823991522	29.275024272468
4	120893	29481.282474211713	23.181827672609
4	120898	29482.014193486013	20.706861091174
4	120904	29482.688707962917	16.05664007218
4	120920	29490.712416059767	22.107735997092
4	120972	29502.367466577824	30.615130999871
4	120985	29504.236623139392	27.377825920408
4	120998	29507.921006375008	30.770448684228
4	121084	29535.283893561089	54.143709389027
4	121095	29536.049326449951	42.745139112231
4	121104	29537.652481112575	41.050889086243
4	121122	29541.606542462308	39.097086411793
4	121137	29542.607331615646	35.92595660394
4	121144	29545.565385608793	38.689886637511
4	121173	29552.308955465356	43.968466642828
4	121178	29552.53896506054	23.143569039426
4	121182	29553.36777697197	14.491059938495
4	121217	29558.830023471389	2.457346916884
4	121299	29574.895524575295	12.765104520449
4	121305	29576.027231518277	4.661340740706
4	121317	29577.637837613371	4.647327707561
4	121330	29580.768643704314	6.107971990998
4	121335	29581.289431258418	5.159632379832
4	121339	29581.391597026554	4.883255124565
4	121391	29595.315326947067	9.628760119984
4	121400	29596.977185299394	10.650774037659
4	121405	29597.468986974671	6.305606749909
4	121409	29597.52535062024	1.525544095383
4	121425	29600.277454781724	0.115502202281
4	121443	29610.521920290917	5.720434846766
4	121448	29612.108096665879	5.820065081017
4	121631	29660.200246337633	22.740545540734
4	121849	29718.818879885634	69.542719606573
4	121862	29722.600113026669	72.132035659259
4	121874	29724.833874090805	65.793797802633
4	121880	29725.197475766949	52.242231381376
4	121888	29725.693860471143	52.298472780935
4	121898	29726.168501251702	50.074284663378
4	121903	29727.107693339618	49.826604330416
4	121915	29731.038659851483	48.977120842754
4	121939	29737.266638226091	52.325734575628
4	121944	29738.595632676938	51.958503201321
4	121958	29742.326216394687	46.604076131324
4	122015	29756.547650728764	60.764891922737
4	122056	29763.701795264265	62.274500731161
4	122061	29764.074659699195	61.494677706158
4	122066	29764.435991244782	48.284354084305
4	122071	29765.748788240985	48.639562681898
4	122076	29767.19377861532	44.71246666424
4	122092	29774.693209796674	51.482874241641
4	122192	29794.571601751126	71.289984485808
4	122197	29794.962070232255	71.221135524568
4	122202	29796.470404428316	66.316546431559
4	122209	29798.073296436925	66.990852583136
4	122222	29802.330349308402	70.880643501931
4	122233	29804.91786146011	67.68664360348
4	122238	29807.512535009666	49.774339814762
4	122249	29813.476517124875	45.333797522902
4	122278	29820.561132021261	49.286845686751
4	122312	29831.458613035993	59.594208302194
4	122326	29833.260258280351	59.056811213189
4	122339	29839.152958882729	64.037674301637
4	122363	29842.354813909497	65.38605450028
4	122373	29844.577331176426	66.043344749068
4	122383	29845.771213334379	65.812196149672
4	122389	29846.082232792432	65.240581955873
4	122400	29849.454174030724	65.989343408889
4	122422	29854.993542206509	69.205964323922
4	122437	29859.673253770635	66.067015698992
4	122448	29860.61225427854	66.762888412353
4	122459	29862.320102479686	47.811842657336
4	122521	29883.457357116471	67.93938887819
4	122526	29884.73349355774	52.146108389368
4	122531	29886.065195462064	52.301614867222
4	122540	29888.920354576429	48.23203474954
4	122547	29892.804943119074	44.617696971748
4	122559	29895.423318633931	37.492718275526
4	122566	29896.944702727621	38.971699423305
4	122571	29897.317653656264	35.945950130839
4	122580	29900.476710990447	37.234544532127
4	122680	29932.350072867395	62.34851606307
4	122695	29937.249066076643	61.149919209516
4	122712	29942.688292353529	54.805828204994
4	122739	29948.813735884015	60.224273957788
4	122751	29949.425558000913	54.645771228668
4	122756	29950.069103929619	47.378099403314
4	122766	29953.822989301125	32.038394199069
4	122788	29957.916014687653	33.705993957893
4	122798	29962.12538669494	25.975809627257
4	122819	29965.027928609795	24.118220937844
4	122824	29965.968463964652	22.397272289121
4	122831	29967.332591434706	23.685307128164
4	122845	29975.201234325471	30.526906765936
4	122850	29975.20848111909	26.114902983761
4	122867	29979.557023622788	25.524561617718
4	122895	29986.898343624904	29.390295935013
4	122910	29991.512655176761	33.616227531278

