version 2
run Second-n4-13-20191016-14:53:23-10624
attr configname Second-n4
attr datetime 20191016-14:53:23
attr experiment Second-n4
attr inifile omnetpp.ini
attr iterationvars ""
attr iterationvarsf ""
attr measurement ""
attr network org.omnetpp.queueing.Pizza
attr processid 10624
attr repetition 13
attr replication ""
attr resultdir results
attr runnumber 13
attr seedset 13
param **.PS.maxInventoriedPS 4
param **.U1.interArrivalTime exponential(3s)
param **.U2.interArrivalTime exponential(5s)
param **.PS.serviceTimeForInventoryU1 exponential(1.0s)
param **.PS.serviceTimeForInventoryU2 exponential(1.2s)
param **.PS.serviceTimeDirectU1 exponential(1.4s)
param **.PS.serviceTimeDirectU2 exponential(1.4s)
param **.PS.probabilityProducing 0.7
param **.CS.serviceTimeU1 exponential(1.1s)
param **.CS.serviceTimeU2 exponential(1.4s)

vector 0 Pizza.EntryQueueU1 queueLength:vector ETV
attr interpolationmode sample-hold
attr title "queue length, vector"
vector 1 Pizza.CS queueLength:vector ETV
attr interpolationmode sample-hold
attr title "queue length, vector"
vector 2 Pizza.EntryQueueU2 queueLength:vector ETV
attr interpolationmode sample-hold
attr title "queue length, vector"
vector 3 Pizza.sink lifeTime:vector ETV
attr interpolationmode none
attr title "lifetime of arrived jobs, vector"
attr unit s
vector 4 Pizza.sink lifeTimeU2:vector ETV
attr interpolationmode none
attr title "lifetime of arrived jobs, vector"
attr unit s
0	0	0	0
0	7	5.324835378102	1
0	14	11.215102530395	0
0	25	12.029129270795	1
0	26	12.168995606313	0
0	72	21.590056765483	1
0	73	22.937171706491	0
0	154	38.702643380884	1
0	155	39.410782173423	0
0	182	44.648428070186	1
0	185	44.686022902355	2
0	189	46.759720028744	3
0	191	47.193592099003	4
0	192	47.401151310168	3
0	197	47.434412623819	2
0	202	47.595669721253	1
0	207	47.640559799758	0
0	211	48.555585941583	1
0	219	52.419208055311	0
0	233	59.785282787756	1
0	234	62.298392660131	0
0	241	62.783786086658	1
0	243	63.519395892926	2
0	246	63.866655263419	3
0	248	64.143835256144	4
0	249	64.346027288794	3
0	254	64.869197178996	2
0	260	64.963191101858	1
0	269	66.118405726493	0
0	280	67.132161125796	1
0	281	67.536388398	0
0	298	71.141654954739	1
0	299	71.226656962076	0
0	311	71.847995303952	1
0	312	72.465585097533	0
0	336	78.932519572313	1
0	341	81.327776192897	0
0	369	92.771703102525	1
0	370	93.142231270411	0
0	376	93.572213456944	1
0	378	96.456868388471	0
0	384	96.475716507584	1
0	385	96.507084758096	0
0	418	102.995626629015	1
0	419	104.353100996612	0
0	432	105.186415953251	1
0	435	105.629169454757	0
0	503	131.859472094837	1
0	506	132.946060879613	2
0	509	134.088593280682	3
0	510	134.267634739416	2
0	515	134.407764239845	1
0	522	135.804050989523	0
0	554	140.910627373121	1
0	555	141.055883197986	0
0	564	141.962766716113	1
0	565	142.320189596746	0
0	583	144.845250815415	1
0	588	148.385844174618	0
0	615	151.183017430087	1
0	616	151.538189262177	0
0	622	152.054014817526	1
0	626	153.765698212573	0
0	723	184.171855314978	1
0	726	184.285810828769	0
0	744	187.713347573126	1
0	748	187.954605858463	2
0	749	188.109257503948	1
0	757	190.490508283413	2
0	758	191.362964523919	1
0	764	192.67700929298	0
0	781	197.062861174813	1
0	783	199.014077169336	0
0	808	206.044813691676	1
0	810	206.174772248191	2
0	811	206.436214820019	1
0	819	208.022216188533	0
0	825	208.216971186113	1
0	826	208.315361050233	0
0	875	217.99210980733	1
0	876	218.238355783264	0
0	888	218.878990829105	1
0	893	222.841667606822	0
0	900	224.967490321677	1
0	901	224.983223299506	0
0	912	226.021778398684	1
0	916	228.501141980869	2
0	917	228.817998606474	1
0	922	229.47817359148	0
0	955	236.983683513236	1
0	958	237.182125475991	0
0	991	241.157243484621	1
0	993	241.450970765944	2
0	994	241.642918847921	1
0	999	242.198218590652	0
0	1006	243.012723669999	1
0	1008	243.392811502461	2
0	1011	243.796135151281	3
0	1012	243.841390021241	2
0	1017	244.445845398353	1
0	1022	245.514335185205	0
0	1041	249.94928832889	1
0	1042	249.95354061306	0
0	1067	255.92839488266	1
0	1069	256.656792251663	2
0	1070	256.684031929133	1
0	1076	256.723298886028	2
0	1081	257.472090941572	3
0	1082	257.72619065629	2
0	1088	257.900697539217	3
0	1089	258.361973806692	2
0	1095	259.434545410181	1
0	1100	259.60621997943	0
0	1106	261.115997313988	1
0	1107	261.349812286233	0
0	1111	262.017117300348	1
0	1118	264.84546502744	0
0	1166	283.408326651268	1
0	1167	285.862145151015	0
0	1182	289.647850200642	1
0	1184	290.064562950144	0
0	1200	292.552685215044	1
0	1201	293.547579365053	0
0	1225	302.671682354896	1
0	1226	303.882750851792	0
0	1237	304.242121696885	1
0	1239	305.566716094344	2
0	1241	306.096529880079	1
0	1247	306.510695613785	2
0	1248	307.080664187125	1
0	1253	307.515391689678	0
0	1268	311.11090048785	1
0	1269	311.327271445741	0
0	1335	338.308654585532	1
0	1336	338.591055818068	0
0	1359	346.432619221825	1
0	1361	347.467459858685	0
0	1374	350.315010904253	1
0	1376	350.480661234516	2
0	1377	352.859503185371	1
0	1385	352.995218643729	2
0	1386	353.154969321866	1
0	1391	353.661553915952	0
0	1412	358.238891328559	1
0	1414	358.792304806615	0
0	1446	366.347803019669	1
0	1447	366.396192336651	0
0	1461	369.618903007976	1
0	1462	370.916640514641	0
0	1469	371.697672295765	1
0	1470	371.702758940449	0
0	1517	384.263120949455	1
0	1520	385.817899135245	0
0	1526	386.747478932772	1
0	1527	387.844882633928	0
0	1542	389.271439080219	1
0	1544	389.619483666802	2
0	1545	389.840318144084	1
0	1552	390.636983797163	0
0	1558	391.885554488146	1
0	1560	392.60978723232	0
0	1582	400.072086033709	1
0	1585	400.995382371807	0
0	1613	404.855034735434	1
0	1616	406.082681241527	0
0	1623	407.497015071387	1
0	1624	408.043676806491	0
0	1630	408.636218496546	1
0	1632	410.198448491561	0
0	1652	413.719734505923	1
0	1653	413.874814724666	0
0	1660	414.129950528668	1
0	1661	415.072523854971	0
0	1677	423.722391427499	1
0	1678	424.139455818083	0
0	1687	426.321516313781	1
0	1688	426.617222622929	0
0	1694	427.053841447731	1
0	1695	427.452706070129	0
0	1767	452.121899131852	1
0	1768	453.205036031724	0
0	1797	459.213512723448	1
0	1798	459.504422211576	0
0	1819	463.317906078405	1
0	1824	464.787749641584	0
0	1854	476.644569054312	1
0	1855	477.17615123703	0
0	1861	477.674338952557	1
0	1862	478.890066605351	0
0	1901	487.082636256972	1
0	1903	487.957832514804	2
0	1906	490.397488564116	1
0	1914	491.648388180189	0
0	1925	491.847718978055	1
0	1927	492.235610235366	2
0	1928	492.949000154967	1
0	1933	493.297918476281	0
0	1950	495.206623067315	1
0	1951	495.28133967416	0
0	1963	495.689875809801	1
0	1964	495.999955818071	0
0	1990	499.7211244052	1
0	1991	499.765581198281	0
0	2005	502.385581332844	1
0	2006	502.438578543553	0
0	2023	506.434160462103	1
0	2024	506.945157152359	0
0	2031	508.587171215014	1
0	2032	510.107670590639	0
0	2061	513.476890323888	1
0	2063	513.98965019983	2
0	2064	514.672939840645	1
0	2070	516.453129369315	0
0	2078	517.9667377866	1
0	2080	518.198315144961	2
0	2081	518.603039545033	1
0	2090	519.88496008965	0
0	2142	532.292408478887	1
0	2143	533.103501899657	0
0	2157	535.342914100314	1
0	2160	536.945632991418	0
0	2182	545.765863657169	1
0	2183	546.884624267461	0
0	2189	547.382037042251	1
0	2191	547.987089340164	2
0	2193	548.246707246052	3
0	2194	548.925564781346	2
0	2199	549.240315268129	1
0	2204	549.504810362593	0
0	2208	551.39226054586	1
0	2214	554.221621520264	0
0	2227	555.951401248979	1
0	2229	557.118788947149	0
0	2238	557.803774505746	1
0	2240	558.246640364936	0
0	2298	569.62758049599	1
0	2299	570.668477397911	0
0	2317	573.916549514095	1
0	2320	575.702784369807	0
0	2326	575.983671315487	1
0	2327	576.020854681644	0
0	2333	576.052068015069	1
0	2335	576.967483175276	2
0	2336	577.485189906364	1
0	2341	578.284704138531	0
0	2347	579.218521454486	1
0	2348	580.279070973915	0
0	2354	582.455194585107	1
0	2358	583.275414189959	0
0	2382	590.811859374211	1
0	2384	594.634918112246	0
0	2398	597.425360323744	1
0	2400	599.110056958493	2
0	2403	600.278407386628	1
0	2409	600.497512274848	2
0	2411	600.70274952448	1
0	2416	600.92242517495	0
0	2437	602.570346224933	1
0	2442	604.153816792808	2
0	2444	604.984008477487	1
0	2450	605.446673416076	2
0	2454	606.709992155634	1
0	2459	606.88945657383	0
0	2463	609.350667221696	1
0	2472	611.922600094504	2
0	2474	612.025147612986	3
0	2475	612.448101654217	2
0	2481	612.774262355208	3
0	2483	613.695623806998	2
0	2494	616.479334286314	1
0	2508	619.045249606581	0
0	2532	623.877061457251	1
0	2533	624.136416402756	0
0	2548	626.021296187876	1
0	2549	626.10409723823	0
0	2563	628.678220990187	1
0	2566	629.523574225576	2
0	2568	629.649765711982	3
0	2569	629.952835170215	2
0	2574	631.107440435992	1
0	2579	631.314596200135	0
0	2587	631.926375810292	1
0	2591	633.777832462755	2
0	2594	637.851283513009	1
0	2599	637.94042745075	0
0	2650	645.215304800197	1
0	2651	645.429209010756	0
0	2664	649.871330962764	1
0	2665	650.06274162323	0
0	2674	650.945841794945	1
0	2678	656.253401883122	0
0	2708	665.204556667794	1
0	2709	665.604042143146	0
0	2723	667.436900086323	1
0	2724	668.218068029067	0
0	2733	669.763942613463	1
0	2735	669.824066954068	2
0	2737	673.351994811596	3
0	2741	675.593615628049	2
0	2748	677.43709261797	1
0	2754	677.534253826584	0
0	2776	683.49475321955	1
0	2777	683.819931979274	0
0	2786	686.272152191816	1
0	2789	687.996520093091	2
0	2790	688.679141163876	1
0	2795	688.990851477807	0
0	2808	691.316166104031	1
0	2810	693.755813047546	0
0	2826	696.336281893735	1
0	2827	697.046320768016	0
0	2873	712.257263316636	1
0	2874	713.298298612189	0
0	2884	714.622552797306	1
0	2888	717.116528035281	2
0	2892	719.047649724562	3
0	2893	719.822978319489	2
0	2899	719.950874091829	3
0	2904	720.635504432431	4
0	2905	720.919534211782	3
0	2910	721.147045351915	2
0	2915	721.233048147081	1
0	2921	721.233275663428	2
0	2922	721.346612742028	1
0	2929	724.064806145401	0
0	2933	724.158429827341	1
0	2938	726.108397085575	0
0	2954	727.190394171406	1
0	2958	728.693252444973	0
0	3000	738.241711366223	1
0	3001	741.681378177627	0
0	3013	743.961378507029	1
0	3015	744.041134620861	2
0	3018	745.555625854275	1
0	3023	745.596376328453	0
0	3031	746.807611685039	1
0	3033	746.856415616564	2
0	3034	747.650015162564	1
0	3040	748.401321969989	0
0	3072	753.211203534649	1
0	3073	754.165646885978	0
0	3082	756.137212226735	1
0	3085	756.634125443795	0
0	3113	763.692507130143	1
0	3116	765.267025400238	0
0	3122	765.848276705413	1
0	3125	767.299511734717	2
0	3128	767.795272156185	1
0	3135	770.041673218371	0
0	3154	774.656748570927	1
0	3155	775.872113016431	0
0	3222	808.11599398479	1
0	3223	808.324031149719	0
0	3247	816.080284902545	1
0	3248	817.073981317295	0
0	3296	830.26538338112	1
0	3299	830.495217198995	0
0	3308	831.607407902381	1
0	3310	831.976392442026	2
0	3318	835.037063540048	3
0	3322	836.673161160613	4
0	3324	837.157067510989	3
0	3329	837.317692593913	2
0	3335	837.354441891499	3
0	3339	839.937557930881	2
0	3344	841.151086235537	1
0	3349	841.415084170163	0
0	3362	842.094784683454	1
0	3363	842.104137360553	0
0	3369	842.488208260247	1
0	3370	842.518258487381	0
0	3374	843.057752767246	1
0	3378	844.00647928153	2
0	3379	844.342443120959	1
0	3383	844.777181482017	2
0	3387	845.554157893798	3
0	3388	845.637030811284	2
0	3398	846.583281991739	3
0	3399	848.231481682675	2
0	3403	849.509490494835	3
0	3407	850.643964473977	2
0	3416	851.249710252757	3
0	3417	851.35643224358	2
0	3422	851.832047089872	1
0	3432	853.138374843143	0
0	3461	858.835489950991	1
0	3464	858.982233640914	0
0	3486	861.478269947653	1
0	3488	861.625177460461	2
0	3490	861.849452317427	3
0	3495	863.197127366103	2
0	3501	864.170289369229	3
0	3502	864.345255113318	2
0	3507	864.683391897886	1
0	3517	868.377080129472	0
0	3545	873.764935775112	1
0	3547	873.997839270786	2
0	3551	874.338043642883	3
0	3553	874.393741388222	4
0	3554	874.455692526699	3
0	3559	874.834867275792	2
0	3566	874.955967960797	1
0	3571	875.551060948772	0
0	3618	888.098603748553	1
0	3619	889.667349295453	0
0	3626	894.161259010362	1
0	3627	894.203830155544	0
0	3658	902.461159668815	1
0	3662	906.848237612771	2
0	3663	907.594588127386	1
0	3669	907.71013212441	2
0	3670	908.032542283266	1
0	3676	908.397863443663	0
0	3707	912.03656517998	1
0	3709	912.554429671206	0
0	3731	922.896425115437	1
0	3733	923.470574158667	2
0	3734	923.65351330504	1
0	3739	924.862224355779	0
0	3763	928.658148146733	1
0	3765	928.811968829392	2
0	3769	931.599234362294	1
0	3774	932.098385643061	0
0	3780	932.119977612666	1
0	3782	932.244067266139	2
0	3785	933.154725816921	1
0	3791	933.830344546209	0
0	3853	953.828374789329	1
0	3854	954.677930637347	0
0	3882	957.690561577924	1
0	3885	959.001969498821	0
0	3894	959.726089428171	1
0	3898	961.44946641059	2
0	3899	963.018515202076	1
0	3904	964.146119798435	0
0	3921	966.386351479739	1
0	3923	966.996283085182	0
0	3929	968.105352620288	1
0	3933	971.7991541628	0
0	3976	979.627781776272	1
0	3977	980.598193940561	0
0	3991	985.160105266446	1
0	3994	986.769818117942	2
0	3995	987.381905842863	1
0	4001	988.39217643608	0
0	4016	990.276156255155	1
0	4018	991.077936364569	2
0	4019	991.723398704581	1
0	4026	992.170402849082	2
0	4029	992.462169968361	3
0	4032	993.010894802838	2
0	4038	994.916937610796	1
0	4044	995.52492148078	0
0	4072	1003.706538902458	1
0	4074	1004.142900262618	2
0	4075	1004.236812823103	1
0	4083	1004.478941314176	2
0	4085	1005.28223396691	1
0	4101	1008.359515754271	0
0	4107	1008.512832302268	1
0	4110	1010.996683091749	2
0	4114	1011.738987923652	3
0	4116	1011.992260707719	4
0	4117	1012.578517657842	3
0	4123	1012.84650020395	4
0	4125	1013.166260766803	5
0	4126	1013.60304157428	4
0	4132	1014.794570081095	5
0	4134	1015.885846442296	4
0	4139	1016.391312992602	3
0	4143	1016.778039120917	4
0	4149	1017.860228199247	5
0	4151	1018.806961026549	4
0	4157	1018.894912681805	3
0	4162	1018.973206788315	2
0	4167	1022.214200773825	1
0	4172	1022.677441688585	0
0	4187	1026.713511876331	1
0	4188	1026.892301125472	0
0	4246	1042.148371998311	1
0	4248	1042.692272728224	2
0	4250	1043.317524262162	3
0	4251	1044.343311272819	2
0	4258	1044.83993698267	1
0	4263	1044.897025804984	0
0	4291	1047.0116707991	1
0	4300	1049.294738471508	2
0	4302	1050.102903579193	1
0	4307	1051.148857626605	0
0	4313	1051.984372916966	1
0	4315	1052.582119603408	0
0	4327	1055.494450472548	1
0	4330	1056.487751521269	0
0	4338	1057.056319233558	1
0	4344	1058.396588690554	0
0	4368	1060.067244888654	1
0	4369	1060.129982816449	0
0	4396	1067.036176231597	1
0	4398	1067.700963090616	2
0	4403	1069.832135483433	1
0	4409	1069.870644468127	2
0	4413	1071.679198673484	1
0	4420	1072.780397875665	0
0	4442	1079.858402572312	1
0	4443	1082.02560971732	0
0	4459	1083.84591867537	1
0	4464	1085.781074520666	0
0	4478	1087.666915562653	1
0	4481	1088.921013897184	0
0	4494	1092.0322187596	1
0	4497	1092.73344421806	0
0	4507	1093.283473829065	1
0	4512	1093.916819854606	2
0	4514	1094.20790343487	1
0	4522	1094.544504083088	0
0	4529	1095.913866748725	1
0	4530	1096.093295749615	0
0	4549	1101.629242881922	1
0	4551	1102.085998096549	0
0	4581	1107.270677679488	1
0	4584	1109.271804345874	0
0	4590	1109.342581094812	1
0	4592	1109.669893121157	2
0	4593	1109.849057422437	1
0	4598	1110.026607399617	0
0	4607	1112.582319287693	1
0	4612	1114.223580113069	0
0	4621	1116.766535785595	1
0	4623	1117.147230904498	0
0	4641	1119.046569381288	1
0	4643	1119.751530069906	0
0	4669	1126.845192015903	1
0	4671	1126.867833311752	2
0	4672	1126.88800330718	1
0	4677	1127.108563049577	0
0	4708	1134.70035438794	1
0	4711	1134.81771624013	0
0	4717	1135.016285233166	1
0	4721	1135.485959877106	2
0	4722	1137.04082694302	1
0	4728	1137.254022836965	2
0	4731	1137.648329434974	1
0	4736	1138.140702909359	0
0	4743	1139.543498915235	1
0	4744	1139.790482181906	0
0	4773	1148.939155157322	1
0	4774	1149.124251896095	0
0	4798	1154.066621763939	1
0	4799	1154.732330438382	0
0	4819	1157.736531400204	1
0	4820	1157.984078391501	0
0	4843	1159.743286562639	1
0	4844	1159.87087260079	0
0	4882	1169.279360504686	1
0	4884	1170.178584956818	0
0	4914	1176.597664805731	1
0	4917	1178.458631061357	0
0	4933	1180.111234398093	1
0	4935	1181.238687773278	2
0	4943	1183.395796291984	1
0	4950	1183.994891529662	2
0	4951	1185.239423649691	1
0	4958	1185.606615688451	2
0	4959	1185.632814472746	1
0	4964	1185.827527534013	0
0	5026	1209.172744968592	1
0	5028	1210.245515042459	0
0	5051	1222.343485681329	1
0	5053	1222.995109371812	0
0	5063	1224.743153792105	1
0	5065	1227.115167799253	0
0	5071	1227.24174629437	1
0	5072	1228.909205072108	0
0	5083	1233.015219364907	1
0	5089	1236.518739729785	0
0	5110	1238.089407832911	1
0	5111	1239.213228808444	0
0	5131	1242.837237952502	1
0	5132	1242.989087476209	0
0	5205	1255.10693119307	1
0	5209	1258.207374039871	0
0	5227	1262.01745710113	1
0	5231	1263.037214138956	0
0	5249	1265.74732787666	1
0	5252	1268.532258837247	0
0	5258	1268.569700144878	1
0	5260	1269.052034995681	0
0	5314	1278.146172429042	1
0	5318	1278.887967939526	0
0	5328	1280.198983590119	1
0	5329	1280.421693804918	0
0	5337	1280.846073021943	1
0	5338	1280.977471002565	0
0	5421	1297.806710140465	1
0	5423	1297.98642796014	2
0	5424	1299.559851829723	1
0	5429	1300.152128689444	0
0	5437	1302.070938481416	1
0	5438	1302.747167707913	0
0	5460	1328.400975119217	1
0	5461	1328.862044321332	0
0	5475	1330.844107995846	1
0	5478	1331.079790428332	0
0	5517	1346.152536697203	1
0	5518	1347.133948046898	0
0	5524	1347.44529276743	1
0	5527	1347.506685763545	0
0	5546	1349.543764198433	1
0	5550	1350.622959106427	0
0	5620	1373.969804169108	1
0	5625	1375.113502944216	2
0	5626	1375.320115332908	1
0	5631	1375.794281889203	0
0	5674	1381.328600409491	1
0	5676	1381.918694256229	2
0	5677	1382.201161508744	1
0	5683	1382.823739400951	0
0	5738	1390.375884085343	1
0	5739	1391.003953108575	0
0	5762	1391.605201199121	1
0	5763	1392.311061647886	0
0	5773	1392.967716122678	1
0	5774	1393.332569088115	0
0	5788	1396.517343144077	1
0	5791	1397.266909346322	0
0	5821	1405.252715621387	1
0	5825	1406.380691042889	2
0	5827	1406.619457363039	3
0	5829	1407.231913640114	4
0	5832	1407.782164818503	3
0	5838	1408.023717354462	4
0	5839	1408.424374710039	3
0	5845	1408.784479248252	2
0	5850	1409.356820075734	1
0	5856	1409.658042885195	2
0	5859	1410.530373622758	1
0	5864	1411.289073853357	0
0	5868	1411.674369176125	1
0	5871	1413.190083876274	0
0	5898	1423.850999054004	1
0	5899	1423.947483200382	0
0	5911	1424.450747010103	1
0	5913	1425.161618563163	2
0	5914	1425.43937817662	1
0	5921	1427.299209592207	2
0	5922	1427.346706662545	1
0	5928	1427.797173332007	0
0	5939	1428.362968740882	1
0	5941	1429.624993067161	0
0	5949	1429.978608567383	1
0	5956	1433.215426481896	2
0	5958	1433.720863305442	3
0	5960	1433.884997137549	4
0	5961	1434.425669421608	3
0	5967	1435.059162997387	2
0	5973	1435.635311398377	1
0	5978	1435.810360661695	0
0	6013	1444.836477509485	1
0	6014	1444.997106732005	0
0	6037	1459.047445777467	1
0	6041	1461.671311995976	0
0	6084	1473.281375923174	1
0	6087	1474.033136423433	0
0	6126	1481.00280191111	1
0	6129	1481.809560208417	0
0	6146	1484.145249492351	1
0	6147	1484.439653559013	0
0	6159	1485.227748393147	1
0	6166	1489.743260249188	0
0	6173	1493.370011347091	1
0	6174	1493.384667898517	0
0	6180	1493.640202079146	1
0	6181	1495.064355734321	0
0	6187	1495.225358306328	1
0	6189	1496.678018640113	2
0	6190	1499.304020173977	1
0	6195	1499.971803045622	0
0	6210	1502.044231597105	1
0	6212	1502.360959958656	2
0	6214	1502.671341607936	3
0	6215	1502.84135468814	2
0	6220	1503.521234931288	1
0	6227	1505.264232257313	2
0	6230	1506.476996891269	1
0	6235	1506.854263268074	0
0	6247	1507.008726762065	1
0	6252	1509.257114323389	0
0	6263	1510.62153649653	1
0	6265	1511.585520667207	0
0	6269	1513.142655660546	1
0	6277	1516.393409940916	2
0	6278	1516.440447975834	1
0	6283	1516.595363198739	0
0	6312	1519.789363101765	1
0	6313	1520.106481759078	0
0	6324	1521.035795772497	1
0	6328	1522.803533444611	2
0	6330	1523.108405050519	3
0	6333	1523.456067328075	4
0	6334	1523.556203930173	3
0	6340	1523.643596527227	4
0	6341	1524.405955386001	3
0	6348	1526.782920968734	2
0	6353	1527.036641806584	1
0	6360	1528.285028964257	0
0	6366	1528.328059346067	1
0	6371	1529.638547146593	0
0	6392	1534.186223653415	1
0	6393	1534.413234635666	0
0	6436	1540.16896431212	1
0	6437	1540.792290360737	0
0	6459	1545.613421907604	1
0	6461	1546.202509548278	0
0	6484	1561.117789126101	1
0	6485	1561.502849032832	0
0	6491	1562.548311508537	1
0	6494	1564.141965923516	0
0	6501	1566.921894397277	1
0	6502	1567.680078209512	0
0	6508	1567.818992525193	1
0	6511	1568.290663586024	2
0	6513	1569.01281649364	3
0	6514	1570.758324446742	2
0	6520	1571.366932641702	1
0	6526	1572.270117961743	0
0	6566	1579.927643497767	1
0	6572	1582.640034623026	0
0	6578	1582.728711144613	1
0	6581	1583.771066888745	0
0	6601	1585.935734797453	1
0	6602	1586.617191890058	0
0	6634	1594.947016386759	1
0	6641	1601.829950464651	0
0	6647	1602.298525004491	1
0	6651	1603.487087912729	2
0	6653	1604.340592555056	3
0	6655	1604.816160582182	4
0	6656	1605.046627489665	3
0	6664	1606.253664589742	4
0	6667	1606.97036239272	3
0	6672	1607.078650140793	2
0	6681	1611.062643452879	1
0	6687	1611.475564942564	0
0	6708	1614.175077992347	1
0	6715	1616.650463860263	2
0	6721	1618.486702225282	1
0	6726	1618.559659175878	0
0	6732	1618.653932831968	1
0	6733	1619.544189266307	0
0	6747	1621.429646998821	1
0	6749	1621.610713548845	2
0	6752	1624.002084429312	1
0	6757	1624.437167600469	0
0	6769	1628.40228969656	1
0	6770	1628.634360828732	0
0	6786	1629.95379736186	1
0	6787	1630.085014350384	0
0	6794	1631.110048988383	1
0	6795	1631.847143710144	0
0	6804	1633.362231500661	1
0	6806	1635.038994151208	2
0	6808	1636.371934392074	1
0	6813	1636.937945717103	0
0	6817	1638.172211698491	1
0	6821	1640.320783171484	2
0	6823	1642.051959006151	3
0	6833	1647.323136545159	2
0	6844	1649.523381205385	3
0	6846	1649.746981835144	4
0	6847	1650.358049769302	3
0	6852	1650.517631455468	2
0	6860	1650.958400022402	1
0	6866	1651.175448003505	2
0	6869	1651.790216773881	3
0	6870	1652.158044408966	2
0	6875	1652.567498172965	1
0	6881	1656.691087024946	2
0	6882	1657.076545553396	1
0	6888	1657.749127435142	2
0	6890	1658.469212847681	1
0	6896	1658.734883631268	2
0	6901	1660.781460115117	3
0	6903	1661.289879072565	4
0	6905	1661.306067482018	5
0	6906	1662.812920720333	4
0	6912	1664.402952480672	5
0	6914	1664.491740008114	6
0	6916	1665.180914762667	7
0	6919	1665.937368582114	8
0	6922	1667.365035014282	9
0	6923	1668.065408980091	8
0	6931	1668.94068296873	9
0	6932	1669.014032477006	8
0	6937	1669.64776304496	7
0	6943	1672.629149425884	8
0	6945	1673.076149973716	9
0	6946	1674.285368701747	8
0	6952	1674.630040410423	7
0	6957	1674.939556590946	6
0	6962	1676.560498903297	5
0	6971	1677.686248722343	4
0	6976	1678.191888477222	3
0	6984	1679.823436165417	4
0	6985	1680.905672898667	3
0	6990	1681.409165540931	2
0	6994	1682.024203511708	3
0	6999	1683.091319493771	4
0	7000	1683.47760951044	3
0	7005	1683.604139429317	2
0	7011	1684.843082781939	3
0	7012	1684.848463058071	2
0	7019	1686.524631427211	1
0	7026	1688.396505855755	0
0	7037	1690.349143681976	1
0	7039	1692.129459908329	2
0	7041	1692.193863270376	3
0	7043	1692.510865221179	4
0	7044	1692.554115283041	3
0	7050	1693.027485334693	4
0	7053	1693.381330181378	3
0	7059	1694.172913786567	2
0	7064	1696.540153993396	1
0	7069	1697.477625514423	0
0	7090	1699.481722644849	1
0	7103	1704.536723610888	2
0	7105	1705.164519427048	3
0	7107	1707.199337527328	2
0	7112	1707.272949430004	1
0	7117	1707.764283131536	0
0	7127	1708.4394523184	1
0	7129	1709.064230554497	2
0	7130	1709.312434473833	1
0	7135	1709.533505457157	0
0	7141	1710.933010931915	1
0	7143	1712.200737564443	2
0	7149	1713.413193998549	3
0	7150	1713.835487085756	2
0	7155	1714.022399524896	1
0	7159	1715.596318758109	2
0	7162	1716.64662047737	1
0	7171	1719.991259209788	0
0	7188	1721.190945296518	1
0	7191	1722.439487757293	0
0	7198	1724.428639663525	1
0	7200	1724.47087582706	2
0	7205	1725.387451881955	1
0	7211	1726.28682011577	0
0	7217	1726.469310618736	1
0	7221	1726.624535225357	2
0	7223	1727.120469532705	3
0	7224	1729.117092061181	2
0	7232	1730.427632901085	1
0	7238	1730.444962897233	2
0	7240	1730.473837217556	3
0	7241	1730.945455376899	2
0	7248	1731.34113477431	3
0	7249	1731.375594057356	2
0	7254	1731.485254089607	1
0	7262	1732.596961518176	0
0	7284	1736.480201513895	1
0	7285	1736.715861399322	0
0	7299	1737.311988713688	1
0	7300	1737.511420559167	0
0	7306	1738.339607835804	1
0	7309	1738.968489748668	2
0	7310	1739.330862351008	1
0	7316	1739.601807526885	2
0	7319	1740.483164933085	3
0	7321	1740.666204831729	2
0	7326	1741.746914870262	1
0	7331	1743.698042647606	0
0	7362	1749.985946735809	1
0	7366	1752.121527242528	0
0	7388	1754.995443442227	1
0	7393	1759.33749836628	0
0	7399	1759.513185953055	1
0	7402	1761.759279540151	0
0	7451	1771.808015697613	1
0	7453	1772.008909270144	2
0	7455	1772.667157385911	3
0	7456	1773.118818484082	2
0	7464	1774.467654153826	1
0	7470	1774.618905764967	0
0	7484	1778.284800054242	1
0	7485	1778.762075738684	0
0	7501	1786.936261302915	1
0	7506	1787.863849819074	0
0	7515	1787.982864464574	1
0	7517	1789.032377956298	2
0	7524	1790.653751484794	1
0	7532	1791.618743703283	0
0	7541	1793.076451456919	1
0	7543	1798.055197171958	2
0	7545	1798.85062742247	3
0	7548	1800.089836608074	2
0	7553	1800.098765453661	1
0	7560	1801.159540872186	0
0	7585	1809.418765063119	1
0	7590	1812.558172641651	2
0	7591	1813.428478452284	1
0	7596	1813.479496709535	0
0	7607	1814.385491455344	1
0	7609	1815.718272368843	0
0	7617	1816.847465047203	1
0	7619	1817.45044514966	2
0	7624	1819.46282105253	1
0	7629	1819.952375432828	0
0	7673	1827.719659673581	1
0	7676	1833.344051294062	0
0	7690	1836.576396190397	1
0	7692	1836.942013895818	2
0	7694	1838.573639755395	1
0	7703	1839.135128600418	2
0	7704	1839.569174047163	1
0	7710	1840.158863568878	0
0	7738	1843.837620214858	1
0	7739	1844.011787086157	0
0	7756	1846.725333288357	1
0	7758	1846.772240419251	2
0	7760	1847.4179064231	3
0	7762	1847.53576411499	4
0	7763	1848.165261220598	3
0	7769	1849.20570764202	2
0	7774	1849.40594512196	1
0	7783	1851.817029131342	2
0	7784	1853.00710220612	1
0	7789	1853.663051727918	0
0	7803	1854.877063593954	1
0	7807	1855.18105096556	2
0	7811	1856.706393199509	1
0	7817	1857.305893313599	0
0	7826	1858.141616767379	1
0	7831	1859.16274500054	0
0	7878	1873.609464412374	1
0	7880	1873.826707635353	2
0	7883	1874.353176256777	1
0	7889	1876.617608840355	0
0	7895	1876.841638280852	1
0	7896	1877.465792454883	0
0	7913	1880.222665009389	1
0	7914	1880.619845084685	0
0	7921	1881.635575942669	1
0	7928	1883.534827691742	2
0	7930	1884.894836308279	3
0	7932	1885.700013026443	4
0	7934	1886.438000305926	5
0	7936	1887.200486529992	6
0	7937	1889.140641743735	5
0	7942	1890.093530798698	4
0	7947	1891.274687804151	3
0	7953	1891.404318346404	4
0	7955	1892.028683358233	5
0	7956	1892.168980071888	4
0	7961	1892.30314364413	3
0	7965	1894.455399759376	4
0	7968	1894.949017930319	3
0	7973	1895.951004510794	2
0	7979	1897.23168544645	1
0	7984	1897.606760794232	0
0	7997	1899.829498975656	1
0	7999	1900.641327468568	0
0	8005	1904.185074978727	1
0	8010	1905.496727715569	2
0	8014	1905.896447329422	3
0	8016	1907.319627221775	4
0	8017	1907.852632988246	3
0	8022	1908.5405010032	2
0	8027	1909.879619646785	1
0	8033	1910.172341711139	2
0	8034	1910.36734280602	1
0	8040	1911.721063353201	2
0	8041	1912.41378421365	1
0	8046	1919.512434853649	0
0	8052	1920.639825989674	1
0	8057	1925.846178507216	0
0	8073	1926.732962781588	1
0	8074	1927.024833353427	0
0	8082	1929.932376492423	1
0	8083	1930.026167835286	0
0	8111	1936.359921853608	1
0	8115	1937.841942392638	0
0	8121	1937.962044303505	1
0	8125	1940.29544557931	0
0	8145	1942.399578739491	1
0	8150	1945.741601160036	0
0	8156	1945.744257434989	1
0	8160	1947.296280035428	0
0	8166	1947.557438176658	1
0	8168	1948.303839150732	2
0	8172	1948.894930688126	1
0	8182	1952.619588174842	0
0	8192	1955.508694368431	1
0	8194	1956.1779181238	2
0	8197	1956.885963285502	1
0	8205	1957.560399766677	2
0	8207	1958.200576109436	3
0	8209	1958.609467750005	2
0	8214	1958.738540286415	1
0	8219	1959.08789775194	0
0	8226	1959.924782065527	1
0	8228	1960.08510048953	2
0	8230	1960.299808721686	3
0	8236	1962.988937630295	2
0	8241	1963.033851770371	1
0	8246	1964.503446815032	0
0	8252	1965.278783720982	1
0	8254	1966.075609185066	0
0	8306	1979.607801266115	1
0	8311	1983.588633079365	0
0	8331	1988.263315806162	1
0	8332	1988.973724839554	0
0	8374	2004.756222031362	1
0	8375	2005.311083652772	0
0	8426	2020.358947073782	1
0	8428	2020.540201813686	2
0	8430	2020.908867231039	3
0	8433	2023.383339644643	2
0	8440	2024.714788925928	3
0	8442	2027.478448856686	4
0	8444	2028.167518551745	5
0	8446	2029.181417304934	6
0	8448	2029.482518086896	7
0	8450	2029.831073133531	8
0	8451	2030.569667715906	7
0	8457	2030.910214298168	8
0	8462	2031.885745937909	7
0	8471	2032.540434071092	6
0	8477	2032.608034796193	7
0	8478	2032.657642819703	6
0	8484	2033.361883379398	7
0	8485	2033.73264882278	6
0	8494	2035.129169981231	7
0	8495	2035.461164579855	6
0	8501	2037.23778479814	5
0	8506	2037.726678430458	4
0	8516	2040.665584962378	3
0	8522	2041.428790847279	2
0	8528	2041.504755111013	3
0	8529	2041.537609145651	2
0	8534	2041.590883625489	1
0	8539	2042.788961233018	0
0	8543	2043.617849132629	1
0	8546	2046.036317726847	0
0	8568	2048.541270093833	1
0	8570	2049.567969154357	0
0	8586	2050.326888895704	1
0	8594	2053.673116688937	0
0	8611	2057.208966612323	1
0	8616	2060.688466501497	0
0	8625	2062.345186899312	1
0	8628	2062.910646602705	0
0	8643	2064.520178931629	1
0	8648	2067.575726321641	0
0	8670	2070.52093470074	1
0	8674	2072.373297049778	2
0	8675	2072.676941569774	1
0	8680	2072.904517275092	0
0	8689	2073.081578697586	1
0	8691	2076.485938807672	0
0	8705	2080.460285842271	1
0	8708	2082.130292982563	2
0	8709	2084.649905451153	1
0	8715	2085.06851981285	2
0	8716	2085.275179938863	1
0	8722	2085.497084228979	2
0	8725	2085.693591123897	1
0	8733	2089.029318668617	0
0	8746	2089.309826851937	1
0	8750	2090.528159669607	2
0	8751	2092.352202602758	1
0	8756	2092.54499536236	0
0	8763	2093.591915168523	1
0	8764	2093.796270545936	0
0	8775	2094.198384687111	1
0	8781	2096.350437843648	0
0	8806	2105.144029870701	1
0	8807	2106.086293983914	0
0	8868	2121.552728542463	1
0	8872	2122.928851104322	2
0	8873	2123.2983016207	1
0	8878	2123.615147648133	0
0	8905	2128.630950755865	1
0	8907	2129.729949623201	0
0	8913	2129.738626186849	1
0	8915	2130.954970458258	0
0	8923	2132.025767492558	1
0	8925	2132.287439820679	2
0	8926	2133.643275190238	1
0	8931	2133.713925233304	0
0	8971	2143.708064942583	1
0	8972	2144.000072425345	0
0	9016	2163.509622091551	1
0	9017	2163.60683376905	0
0	9038	2168.615821326276	1
0	9040	2168.991082394407	2
0	9043	2170.585207386167	1
0	9052	2171.394716904716	0
0	9063	2174.036464645431	1
0	9065	2174.605395284285	2
0	9069	2175.279096370586	3
0	9073	2176.976215974492	2
0	9078	2177.208641884101	1
0	9085	2177.605040210033	2
0	9086	2178.158689528813	1
0	9091	2178.257288443743	0
0	9126	2183.250319146238	1
0	9129	2183.53236989563	0
0	9151	2189.676452694341	1
0	9153	2189.868309413458	2
0	9154	2191.91915552154	1
0	9159	2191.986204240323	0
0	9192	2202.11065271559	1
0	9194	2203.718355013612	0
0	9216	2206.263941897417	1
0	9218	2207.557379369398	0
0	9224	2210.143893784044	1
0	9225	2210.296091293613	0
0	9231	2210.328401906286	1
0	9237	2211.725037306929	2
0	9239	2211.851276206667	3
0	9240	2212.486049262838	2
0	9246	2213.190672083515	1
0	9251	2213.866265929441	0
0	9263	2215.00903207283	1
0	9266	2216.657302074746	0
0	9282	2217.716114003498	1
0	9284	2218.155052418882	2
0	9291	2220.30982578508	3
0	9294	2222.22062429734	2
0	9300	2222.720820568708	3
0	9302	2222.739968780084	4
0	9304	2222.875139909021	5
0	9307	2224.757679918156	6
0	9310	2225.411498832717	5
0	9316	2226.328202511971	4
0	9322	2227.103410291868	3
0	9327	2229.269826794407	2
0	9332	2230.909294538704	1
0	9337	2232.587941475861	0
0	9356	2236.775409863561	1
0	9360	2237.886569806168	2
0	9361	2238.267545729513	1
0	9366	2239.024139431672	0
0	9396	2243.670491680341	1
0	9397	2243.743238519265	0
0	9414	2250.913745508183	1
0	9415	2251.249075928097	0
0	9429	2253.043754203557	1
0	9431	2253.5668281009	2
0	9432	2253.745555975622	1
0	9440	2254.678050054554	2
0	9441	2254.719472744661	1
0	9447	2254.912373773911	2
0	9449	2256.072313486748	1
0	9457	2257.872296968251	0
0	9483	2263.236571515764	1
0	9484	2263.272086775489	0
0	9495	2263.599666170005	1
0	9496	2264.01512548616	0
0	9517	2268.014029536009	1
0	9519	2269.706611851466	0
0	9528	2270.63650368245	1
0	9529	2270.661276810155	0
0	9552	2275.857588553972	1
0	9553	2277.624831455384	0
0	9623	2305.041933938505	1
0	9624	2305.110637719408	0
0	9633	2307.739129780967	1
0	9638	2308.875491186425	0
0	9655	2310.183199949673	1
0	9656	2310.452768502502	0
0	9665	2311.74750628235	1
0	9671	2312.822181479298	0
0	9677	2312.867089130901	1
0	9678	2312.876782925822	0
0	9687	2316.247808996597	1
0	9689	2317.715850313515	2
0	9693	2319.909285710241	3
0	9699	2321.428377225416	2
0	9705	2321.999487460667	1
0	9711	2322.473852696372	0
0	9739	2326.70688292992	1
0	9740	2326.984352665506	0
0	9774	2336.39623568469	1
0	9775	2337.430078226517	0
0	9822	2347.449167970968	1
0	9824	2348.913296571416	0
0	9830	2348.974286858317	1
0	9834	2351.340243878161	0
0	9878	2363.446147896318	1
0	9880	2364.666365808011	0
0	9891	2365.956606706267	1
0	9892	2367.302672439822	0
0	9931	2374.107553833538	1
0	9936	2376.226188640821	0
0	9943	2377.642587874135	1
0	9944	2378.079713013678	0
0	9957	2379.02296498587	1
0	9959	2379.807070809109	0
0	9976	2381.920791693886	1
0	9977	2381.932384738685	0
0	10039	2405.650697021042	1
0	10040	2405.738017172627	0
0	10068	2410.725408040483	1
0	10069	2411.28477024261	0
0	10076	2412.258082887923	1
0	10077	2412.349352426444	0
0	10096	2418.449356260097	1
0	10099	2421.887247610645	0
0	10120	2426.975822007197	1
0	10122	2428.306275090615	2
0	10123	2428.784536019198	1
0	10128	2429.797016205505	0
0	10135	2431.309701281018	1
0	10138	2431.990589840443	0
0	10166	2438.819853901374	1
0	10168	2439.172799398825	0
0	10189	2441.626126280592	1
0	10191	2442.542546351589	2
0	10197	2444.178333700611	3
0	10199	2445.101369989584	2
0	10207	2445.604805777001	3
0	10210	2446.156053771352	2
0	10215	2446.328189247485	1
0	10225	2449.754404490195	0
0	10237	2450.451469165908	1
0	10240	2450.787424697115	2
0	10242	2451.18362314072	1
0	10247	2451.400838129862	0
0	10256	2455.547369408105	1
0	10258	2456.543643924524	2
0	10259	2456.566049593643	1
0	10265	2457.41633031088	0
0	10309	2479.457571283463	1
0	10311	2479.916795402144	2
0	10313	2480.516128299278	3
0	10316	2480.674407698863	2
0	10321	2480.710286705323	1
0	10329	2481.359802750737	0
0	10340	2483.197405662496	1
0	10342	2483.358773756537	2
0	10345	2484.066806016849	1
0	10351	2484.178577626632	0
0	10360	2485.329955882703	1
0	10361	2485.480131537802	0
0	10397	2492.273624206195	1
0	10400	2493.169235761869	0
0	10406	2493.18380681918	1
0	10409	2494.9488088005	2
0	10410	2496.2698125173	1
0	10418	2498.22869360531	0
0	10431	2500.5491065447	1
0	10433	2501.980587046585	0
0	10481	2515.505989587049	1
0	10484	2517.290963115995	2
0	10486	2517.294405570302	3
0	10488	2518.564343923833	4
0	10489	2519.132455153378	3
0	10495	2519.463438851152	4
0	10499	2520.856731888079	3
0	10504	2521.007631747635	2
0	10509	2521.529708799741	1
0	10514	2522.201547118861	0
0	10571	2540.081130221776	1
0	10573	2540.903953391684	2
0	10574	2541.244233025034	1
0	10581	2542.2783405804	0
0	10587	2542.624403381004	1
0	10588	2542.761454242132	0
0	10652	2569.000560373107	1
0	10656	2569.531786144491	2
0	10659	2570.252802858946	1
0	10666	2572.340251251166	2
0	10670	2572.905773036556	3
0	10671	2572.999833572242	2
0	10677	2573.778831868101	1
0	10684	2573.853448149011	2
0	10685	2574.624754633863	1
0	10690	2575.726672697401	0
0	10705	2577.847463345951	1
0	10707	2577.849798423825	2
0	10708	2578.5183457356	1
0	10714	2579.334909702555	0
0	10725	2581.306603040526	1
0	10728	2582.027262402628	0
0	10741	2584.381750429418	1
0	10742	2585.640489220942	0
0	10762	2587.139678638288	1
0	10765	2587.556967954598	0
0	10783	2592.729838606636	1
0	10786	2594.422787293191	0
0	10798	2598.070524789393	1
0	10800	2599.37754365166	2
0	10803	2600.814239582958	1
0	10809	2600.968928606975	0
0	10850	2608.051854899883	1
0	10852	2608.135036348556	2
0	10856	2609.140060340487	3
0	10859	2610.49378725172	2
0	10865	2610.626368823406	3
0	10867	2610.868190101237	2
0	10874	2610.891852988089	1
0	10878	2614.019559847051	2
0	10885	2616.186523145789	1
0	10893	2617.263917243809	0
0	10908	2621.365722034798	1
0	10909	2622.386090307043	0
0	10916	2623.579327973947	1
0	10918	2625.124794149339	0
0	10959	2635.513404934409	1
0	10960	2635.606804984536	0
0	10987	2640.9628527514	1
0	10990	2641.451508296232	0
0	10999	2643.51895658888	1
0	11000	2644.596406682958	0
0	11051	2653.768960340304	1
0	11053	2653.839157603166	2
0	11059	2655.511999986227	3
0	11060	2655.689848665807	2
0	11065	2656.010588758072	1
0	11070	2656.088313732512	0
0	11076	2657.377436566419	1
0	11080	2657.487060647943	2
0	11083	2657.883023436874	3
0	11087	2660.097142430252	4
0	11090	2662.552778944941	3
0	11096	2662.60945341679	4
0	11097	2663.102365065379	3
0	11106	2664.557947743823	2
0	11114	2665.544647849399	1
0	11119	2665.674346244501	0
0	11123	2666.115127886356	1
0	11130	2669.548767192888	0
0	11177	2677.092292009119	1
0	11178	2678.063966376596	0
0	11184	2678.542213190657	1
0	11186	2679.132436605445	2
0	11187	2679.461454330332	1
0	11192	2680.699173885635	0
0	11209	2683.167744596027	1
0	11210	2683.833409324459	0
0	11218	2685.585961611873	1
0	11221	2686.506600475517	0
0	11234	2687.611723525162	1
0	11235	2688.014192591931	0
0	11276	2699.319009372729	1
0	11279	2700.899177278451	0
0	11285	2700.970628907263	1
0	11288	2703.04921258488	0
0	11309	2707.16557344925	1
0	11313	2707.239529622512	0
0	11327	2710.773390244513	1
0	11329	2712.563807066806	2
0	11331	2712.616477059657	3
0	11332	2713.752495405899	2
0	11338	2713.930959388906	3
0	11339	2714.046544400733	2
0	11348	2715.47554058288	1
0	11354	2715.534717596632	2
0	11360	2720.875771042865	1
0	11368	2722.234833423651	0
0	11402	2731.862548909615	1
0	11409	2736.326711073678	2
0	11410	2736.631438127612	1
0	11417	2736.889264602554	2
0	11418	2737.318456157506	1
0	11423	2737.970726629378	0
0	11441	2740.796776208944	1
0	11443	2741.576853488738	2
0	11447	2745.504103201574	3
0	11448	2745.930141394142	2
0	11454	2746.540061620748	1
0	11460	2746.706612898497	2
0	11461	2746.748173592277	1
0	11468	2747.733312107902	2
0	11472	2748.839478035024	3
0	11477	2749.429067516688	4
0	11479	2750.490253144032	3
0	11487	2751.479487447326	4
0	11489	2753.164430420031	3
0	11495	2753.804878749618	2
0	11501	2753.822125963099	3
0	11503	2754.950553083809	2
0	11508	2756.2189209834	1
0	11518	2758.003311543893	2
0	11520	2758.027765410736	3
0	11521	2758.213294987677	2
0	11528	2759.153719020469	3
0	11529	2759.375832314587	2
0	11536	2759.823499295932	3
0	11537	2759.834461120527	2
0	11543	2760.646673979396	3
0	11544	2760.965982146249	2
0	11557	2764.391505836745	3
0	11558	2766.220654289631	2
0	11563	2767.723040146055	1
0	11568	2767.928334005993	0
0	11576	2769.439043322242	1
0	11577	2769.709961286638	0
0	11590	2771.823200882085	1
0	11591	2771.873332829702	0
0	11597	2773.086276323184	1
0	11603	2775.820677741673	0
0	11615	2776.701117697146	1
0	11616	2777.066391303845	0
0	11645	2780.223849394385	1
0	11646	2780.352217313851	0
0	11658	2783.360097442388	1
0	11659	2783.672894105347	0
0	11665	2784.066914987315	1
0	11666	2784.541003129677	0
0	11681	2788.733208022878	1
0	11682	2789.562519873624	0
0	11689	2790.926826410258	1
0	11690	2791.053498007939	0
0	11696	2791.178184737386	1
0	11697	2791.279532165221	0
0	11703	2791.332096241224	1
0	11704	2791.438538386452	0
0	11710	2794.152767551736	1
0	11712	2794.382461827241	2
0	11717	2795.539571871325	1
0	11722	2796.535025561307	0
0	11777	2808.572090184285	1
0	11779	2810.150431511273	2
0	11782	2810.714941584324	1
0	11789	2810.887540782155	2
0	11790	2811.845697044219	1
0	11797	2813.030487822007	2
0	11798	2813.758154648248	1
0	11804	2813.975372549254	2
0	11805	2814.490503727341	1
0	11813	2816.54086235155	0
0	11827	2817.455962890537	1
0	11834	2818.723161749081	2
0	11837	2819.613950514252	1
0	11842	2819.908753160846	0
0	11849	2820.410102495614	1
0	11851	2820.526502744585	2
0	11852	2820.608145019261	1
0	11858	2822.211577442809	0
0	11894	2830.201047938227	1
0	11895	2832.329714799069	0
0	11907	2833.532465693016	1
0	11909	2834.216986917546	2
0	11910	2834.228827076469	1
0	11916	2835.371328980119	0
0	11923	2835.640045804194	1
0	11924	2835.792048365185	0
0	11933	2836.627379115955	1
0	11934	2837.314983180633	0
0	11940	2838.076019876259	1
0	11943	2838.380810103177	2
0	11945	2838.382291240905	3
0	11947	2838.96894402629	4
0	11949	2841.730587291611	5
0	11951	2841.935047849442	6
0	11952	2842.527148396063	5
0	11959	2843.951248088482	4
0	11967	2845.290631260407	3
0	11973	2845.674293578563	4
0	11974	2846.056629337657	3
0	11980	2846.456834830526	4
0	11982	2846.540450834274	3
0	11987	2846.75394499885	2
0	11992	2846.958276654002	1
0	11998	2848.766856861267	0
0	12004	2849.2522770312	1
0	12005	2849.541485809681	0
0	12033	2854.268299143542	1
0	12034	2854.768110369301	0
0	12040	2854.959635553848	1
0	12042	2856.111146553203	0
0	12065	2860.892165953042	1
0	12068	2861.452068748703	0
0	12104	2871.787138530075	1
0	12107	2873.236752515286	0
0	12113	2874.142825914839	1
0	12116	2874.397827901403	0
0	12129	2875.815153257958	1
0	12132	2876.79432638995	2
0	12134	2877.721611839064	3
0	12135	2878.166934970495	2
0	12141	2878.195535202858	3
0	12143	2880.425120132301	2
0	12148	2880.629764310947	1
0	12155	2881.05495030545	0
0	12161	2881.467723454732	1
0	12163	2882.450960856003	0
0	12180	2884.576664561433	1
0	12186	2886.162465948392	2
0	12188	2888.401511826798	3
0	12189	2888.563769106676	2
0	12194	2888.721425818371	1
0	12202	2890.448325455952	0
0	12225	2893.846825426877	1
0	12227	2894.640922816602	2
0	12229	2895.508615312942	1
0	12234	2896.598016157309	0
0	12240	2897.054126269641	1
0	12241	2897.125060362176	0
0	12247	2897.422272766731	1
0	12249	2898.520486378289	0
0	12255	2898.862837341457	1
0	12257	2899.151204177483	2
0	12261	2899.932598330353	3
0	12265	2902.84475238435	2
0	12270	2902.980578900157	1
0	12277	2905.615095358115	0
0	12281	2906.680354101775	1
0	12284	2908.403382913798	0
0	12303	2912.341739026922	1
0	12304	2913.03360946863	0
0	12313	2914.441694569805	1
0	12315	2915.872370438079	0
0	12346	2921.259243893896	1
0	12348	2921.682045341873	2
0	12350	2922.990892727504	3
0	12353	2923.810540709086	2
0	12361	2924.705904987132	1
0	12366	2925.848620710878	0
0	12392	2933.147024535703	1
0	12395	2933.349733412349	0
0	12413	2938.082830205674	1
0	12419	2938.750645047198	2
0	12420	2939.105648808316	1
0	12426	2940.00303284906	0
0	12433	2941.134398980485	1
0	12435	2941.139483768289	2
0	12437	2942.525010472586	1
0	12443	2944.1793081654	0
0	12474	2949.189542185456	1
0	12476	2950.318041572558	2
0	12477	2951.847875736901	1
0	12483	2953.070660265485	0
0	12490	2954.259872755628	1
0	12493	2955.394453841802	2
0	12495	2955.564609997049	3
0	12496	2956.429223476686	2
0	12502	2956.549744932358	3
0	12505	2957.914502378016	2
0	12512	2958.857602703201	3
0	12513	2959.265775492361	2
0	12519	2959.946652942879	1
0	12525	2961.163885419197	0
0	12540	2962.585873842993	1
0	12541	2962.69930835569	0
0	12588	2974.926887061844	1
0	12590	2976.682810692492	0
0	12621	2987.229004713185	1
0	12622	2987.944563516247	0
0	12646	2995.675402538081	1
0	12648	2996.204281483656	2
0	12649	2996.470009462092	1
0	12655	2996.89554832172	2
0	12658	2999.540108960372	1
0	12668	3003.051878266101	0
0	12679	3004.562663730561	1
0	12680	3004.985469044794	0
0	12706	3012.401571066005	1
0	12707	3014.629157785052	0
0	12744	3019.269088089436	1
0	12746	3019.457931546243	2
0	12747	3019.555331204277	1
0	12753	3019.659112989613	2
0	12755	3021.345411818611	1
0	12762	3021.966131759172	0
0	12817	3040.92574074786	1
0	12822	3042.106047354842	0
0	12828	3043.805828670894	1
0	12829	3044.633003765585	0
0	12842	3045.193335352154	1
0	12845	3046.371739592683	0
0	12860	3050.319272098709	1
0	12862	3050.991661356804	2
0	12863	3051.411680244602	1
0	12872	3052.821159788386	0
0	12878	3053.534747509313	1
0	12880	3053.971171765614	0
0	12902	3056.465596083838	1
0	12903	3056.90582089978	0
0	12932	3063.664987132427	1
0	12935	3064.753135449528	2
0	12938	3066.277353218692	3
0	12939	3067.423859742919	2
0	12944	3067.776813075902	1
0	12949	3068.89714126897	0
0	12993	3073.669699257932	1
0	12995	3073.78325894918	2
0	12996	3073.908406200566	1
0	13001	3074.012128631934	0
0	13045	3090.589761586036	1
0	13051	3092.726168669156	0
0	13062	3094.792840733028	1
0	13064	3095.305722946387	0
0	13071	3097.058117195258	1
0	13073	3097.185626305363	0
0	13089	3099.662027597001	1
0	13090	3104.355603997235	0
0	13113	3108.74253402145	1
0	13114	3109.269685115876	0
0	13146	3114.811261550749	1
0	13147	3114.818903381908	0
0	13168	3118.239539471357	1
0	13170	3118.663759547177	2
0	13171	3118.763201250789	1
0	13176	3121.342443515291	0
0	13190	3123.791817472999	1
0	13195	3125.034185332193	2
0	13196	3125.306817172405	1
0	13202	3125.561117779409	0
0	13211	3126.685877896707	1
0	13212	3127.263776921005	0
0	13225	3128.600225213474	1
0	13226	3128.766758978303	0
0	13249	3130.652580630648	1
0	13251	3131.204353613296	0
0	13258	3131.81237201953	1
0	13260	3132.380224104838	0
0	13272	3133.830651747439	1
0	13274	3134.196152005844	2
0	13277	3134.887578463869	3
0	13279	3135.271011714003	4
0	13280	3135.527063277904	3
0	13286	3136.659285393653	2
0	13292	3138.999623395697	1
0	13297	3139.274406080958	0
0	13326	3143.035644735673	1
0	13327	3143.468831350349	0
0	13377	3155.138938097206	1
0	13378	3155.632508739522	0
0	13407	3165.300745264008	1
0	13408	3165.944357524568	0
0	13421	3170.899982670692	1
0	13423	3171.916278749462	0
0	13429	3172.742170063245	1
0	13431	3174.030561924694	0
0	13457	3178.473901121079	1
0	13458	3180.268111368236	0
0	13491	3189.072980920198	1
0	13493	3189.683329865068	0
0	13509	3193.58382203356	1
0	13510	3193.656891551492	0
0	13557	3210.692022006268	1
0	13559	3210.868251563255	2
0	13561	3210.919272025349	3
0	13562	3211.673008345933	2
0	13569	3213.141224475905	3
0	13570	3214.477855839232	2
0	13577	3216.032519365473	1
0	13582	3216.167489676076	0
0	13589	3217.249796357817	1
0	13591	3217.672312612818	0
0	13599	3218.409602983988	1
0	13600	3219.838552273976	0
0	13622	3223.252024527502	1
0	13627	3223.626574779449	2
0	13628	3223.868423966988	1
0	13633	3224.062164681057	0
0	13662	3227.507056775526	1
0	13663	3228.981756041642	0
0	13685	3234.049428696318	1
0	13687	3234.191550480406	2
0	13688	3234.335670506884	1
0	13694	3235.601014927565	0
0	13815	3271.272757374039	1
0	13816	3272.608609331149	0
0	13827	3272.822793995999	1
0	13836	3278.189206820579	2
0	13838	3279.584124008471	3
0	13840	3279.87461047714	4
0	13842	3280.711718439491	5
0	13843	3281.274985693337	4
0	13848	3281.791477080073	3
0	13853	3282.062640224041	2
0	13860	3283.688564681116	1
0	13867	3284.454520444492	2
0	13869	3285.539743030352	3
0	13870	3286.036507462151	2
0	13875	3286.084144381695	1
0	13881	3286.536018515518	2
0	13882	3286.62999763028	1
0	13887	3286.686273898687	0
0	13891	3287.259612533156	1
0	13895	3288.412811102168	2
0	13906	3292.35268928146	3
0	13907	3292.458434343069	2
0	13911	3293.466854478378	3
0	13918	3298.133786453592	2
0	13922	3299.701386327072	3
0	13928	3301.22203789516	4
0	13929	3301.456224753587	3
0	13935	3301.523954437873	4
0	13937	3302.002203632309	3
0	13944	3305.637372254218	2
0	13954	3310.046021844459	3
0	13956	3310.341616634145	2
0	13962	3310.686461048868	1
0	13968	3311.06849766324	0
0	13992	3313.37892533771	1
0	13994	3313.441093759681	2
0	13996	3313.584225775949	3
0	13997	3314.075939176829	2
0	14002	3314.153220481153	1
0	14006	3315.55018300695	2
0	14008	3315.931857215684	3
0	14011	3317.349296806457	2
0	14018	3319.995037350272	1
0	14027	3323.313909941697	0
0	14056	3329.236655150883	1
0	14059	3330.094628731904	0
0	14075	3334.047347833057	1
0	14080	3334.884263548465	0
0	14105	3336.6587278042	1
0	14106	3337.071427772681	0
0	14120	3338.32361123186	1
0	14126	3340.087223662671	2
0	14127	3341.807277816984	1
0	14132	3341.998157501971	0
0	14176	3355.148593162142	1
0	14178	3356.401747924886	2
0	14180	3356.910230646882	3
0	14185	3357.997552025549	4
0	14186	3358.03051777279	3
0	14191	3358.240749862805	2
0	14198	3358.478256179162	3
0	14201	3359.737156605433	4
0	14206	3361.242794193031	3
0	14214	3362.194577841345	4
0	14215	3363.338911204952	3
0	14220	3363.599022275081	2
0	14226	3365.143156885396	3
0	14227	3365.161099986488	2
0	14237	3367.404735435564	1
0	14243	3368.949650431873	0
0	14254	3370.224918349259	1
0	14255	3370.231923953019	0
0	14259	3372.524023353182	1
0	14261	3373.517589722596	2
0	14264	3375.279638528867	1
0	14270	3375.848088558013	0
0	14281	3377.733010685551	1
0	14282	3377.829492285899	0
0	14293	3379.228477905325	1
0	14296	3380.10979209533	2
0	14297	3380.23535468832	1
0	14302	3380.566906782169	0
0	14331	3383.492526337194	1
0	14332	3383.986679547118	0
0	14370	3389.992534752648	1
0	14371	3390.115577818019	0
0	14394	3398.514503220529	1
0	14397	3400.687677252947	0
0	14403	3400.705090042353	1
0	14404	3400.725563378567	0
0	14457	3421.476062391518	1
0	14458	3421.623771906416	0
0	14483	3433.944099926955	1
0	14484	3434.399925069451	0
0	14572	3467.410658754141	1
0	14573	3467.680899979017	0
0	14588	3473.063748894096	1
0	14589	3473.244360662938	0
0	14614	3483.030113369241	1
0	14615	3483.37317462905	0
0	14623	3484.206969927374	1
0	14625	3484.384579795961	2
0	14627	3484.65183602287	1
0	14632	3485.256344946697	0
0	14638	3485.548294322143	1
0	14639	3485.612764146213	0
0	14647	3486.416767957154	1
0	14648	3486.557864805176	0
0	14663	3488.818125259638	1
0	14664	3489.126068394321	0
0	14676	3490.3290141354	1
0	14679	3491.383334350728	0
0	14695	3493.395634928398	1
0	14696	3493.556548671207	0
0	14708	3496.309321964928	1
0	14710	3497.094083731159	0
0	14732	3501.87226027856	1
0	14737	3503.496399037683	0
0	14756	3507.152642192105	1
0	14758	3508.206942534685	0
0	14814	3518.685587966772	1
0	14815	3519.787240466425	0
0	14827	3522.004451374164	1
0	14828	3522.104131913846	0
0	14847	3525.411088553238	1
0	14853	3528.682920957881	2
0	14855	3529.304538626075	3
0	14856	3529.558156948152	2
0	14862	3529.580100059453	3
0	14863	3530.551923577663	2
0	14870	3530.958251459593	3
0	14872	3532.437938697362	4
0	14874	3533.122653176213	3
0	14879	3534.016911240638	2
0	14884	3534.0886060757	1
0	14889	3534.790144991203	0
0	14895	3535.062935564778	1
0	14899	3535.977048390415	0
0	14908	3537.050880074575	1
0	14912	3540.104903682499	0
0	14921	3540.551444966317	1
0	14924	3541.651930098783	0
0	14930	3541.656987521611	1
0	14932	3542.400128905088	2
0	14936	3542.822686689403	1
0	14943	3544.271272998308	0
0	14950	3545.190836788683	1
0	14952	3545.808609590682	2
0	14954	3546.533859939493	3
0	14955	3547.679657887993	2
0	14960	3548.209466755943	1
0	14965	3548.247936545843	0
0	14971	3548.998041534181	1
0	14976	3550.162836099909	0
0	14987	3550.670572587509	1
0	14990	3553.002625807229	0
0	15071	3572.179075528992	1
0	15073	3573.787461618301	0
0	15090	3577.198310606081	1
0	15091	3578.090504883528	0
0	15100	3579.672163397177	1
0	15101	3579.704707051042	0
0	15114	3582.023677292603	1
0	15116	3584.05082379947	2
0	15117	3584.129932714117	1
0	15122	3584.835105022294	0
0	15137	3585.944133577006	1
0	15142	3588.146103722774	0
0	15159	3589.392271009221	1
0	15163	3589.498487855331	2
0	15164	3589.763652495797	1
0	15172	3592.184287489606	2
0	15174	3592.984800856725	3
0	15176	3594.082152604869	4
0	15178	3595.026260960704	5
0	15179	3595.126154943589	4
0	15184	3595.171413099139	3
0	15189	3595.627932209838	2
0	15194	3595.947035617912	1
0	15202	3599.283342921439	2
0	15206	3600.114613524844	1
0	15215	3600.798524552157	2
0	15216	3601.124433524733	1
0	15221	3601.559391846764	0
0	15247	3605.480725326225	1
0	15249	3605.623801582905	2
0	15255	3606.434739502175	3
0	15258	3607.110927739984	4
0	15260	3609.258045685482	5
0	15261	3609.389946908574	4
0	15265	3609.576162009552	5
0	15267	3610.904985226782	6
0	15273	3613.197059985091	5
0	15282	3616.917547197149	6
0	15284	3617.112786562241	7
0	15287	3617.389021613585	6
0	15293	3622.121693008927	5
0	15298	3622.445179824417	4
0	15303	3623.037631938808	3
0	15308	3623.869821238285	2
0	15313	3624.393669797611	1
0	15318	3625.395147196586	0
0	15329	3627.103149863918	1
0	15333	3629.398261475836	2
0	15338	3631.012316081751	3
0	15339	3631.637110532436	2
0	15344	3632.007105957185	1
0	15350	3632.047442129381	2
0	15356	3632.906214069718	3
0	15358	3633.640374786882	2
0	15363	3633.734465514725	1
0	15368	3633.916853753346	0
0	15372	3634.014599949754	1
0	15374	3635.287252073332	2
0	15376	3635.568768472449	3
0	15378	3635.615848706979	4
0	15384	3637.551749818482	5
0	15386	3639.197629656623	4
0	15390	3639.273540751887	5
0	15392	3639.440202957392	6
0	15395	3640.159801022378	5
0	15402	3642.277040334162	4
0	15412	3646.424919802701	5
0	15413	3647.038170070986	4
0	15418	3647.567996378796	3
0	15423	3648.795670001346	2
0	15430	3651.085220799737	1
0	15436	3652.331261848709	2
0	15438	3653.254952535647	1
0	15443	3653.301587021953	0
0	15483	3658.73260851456	1
0	15484	3659.377674149486	0
0	15506	3665.993202240553	1
0	15508	3666.339097702485	2
0	15510	3667.342661341169	3
0	15514	3667.949536286448	2
0	15520	3668.800869748166	1
0	15525	3668.955186413556	0
0	15553	3672.08116003398	1
0	15555	3672.804996709954	0
0	15567	3674.264511826805	1
0	15568	3674.377663248707	0
0	15574	3674.444496317691	1
0	15581	3678.005419845253	0
0	15593	3679.649176427538	1
0	15594	3679.978915664618	0
0	15604	3681.03295900732	1
0	15609	3682.824858247648	0
0	15650	3692.889935395702	1
0	15651	3693.851877223764	0
0	15663	3697.28274455476	1
0	15664	3697.332513369277	0
0	15670	3698.119145051609	1
0	15672	3698.505467850573	2
0	15673	3699.087862582952	1
0	15678	3699.164167481016	0
0	15685	3700.273251744133	1
0	15686	3700.344770928315	0
0	15701	3701.565354210396	1
0	15703	3701.784899556025	2
0	15706	3702.310928506387	1
0	15711	3702.379962677373	0
0	15735	3706.730990063091	1
0	15736	3706.954789280357	0
0	15744	3707.506002407862	1
0	15753	3709.354245872589	0
0	15784	3714.188031509313	1
0	15785	3717.246499678932	0
0	15792	3717.628076487946	1
0	15793	3718.706499902054	0
0	15805	3720.737444682462	1
0	15807	3721.947863367202	0
0	15813	3723.236521484522	1
0	15814	3724.234614960789	0
0	15840	3730.058521057196	1
0	15844	3731.417417893874	2
0	15850	3733.605308462762	3
0	15852	3733.737451842113	4
0	15854	3734.389707618218	5
0	15856	3734.497603992431	6
0	15861	3737.962181445416	5
0	15867	3738.588572523401	4
0	15873	3739.39424583161	3
0	15879	3740.045603717772	4
0	15880	3740.208976232929	3
0	15884	3740.650869119958	4
0	15892	3742.195364908037	5
0	15898	3743.264222672343	4
0	15906	3744.949726123631	3
0	15913	3746.129841857498	2
0	15922	3747.561130351652	3
0	15924	3749.106695103963	4
0	15927	3751.550726238359	3
0	15934	3753.22029782621	4
0	15935	3754.300923055202	3
0	15940	3755.273685872678	2
0	15945	3755.603378764398	1
0	15951	3755.857780287633	0
0	15958	3756.350008426528	1
0	15960	3756.789077770886	0
0	15983	3761.006271154128	1
0	15984	3761.249409035067	0
0	16019	3769.565766548195	1
0	16023	3771.731217431105	2
0	16026	3775.918060981159	1
0	16032	3776.352439721819	0
0	16046	3780.376646367975	1
0	16049	3781.279578218023	0
0	16061	3782.607089062222	1
0	16062	3782.918010724149	0
0	16074	3785.289756502678	1
0	16076	3786.762195419414	2
0	16078	3787.185269843149	3
0	16080	3787.376092489711	4
0	16084	3789.730720389683	5
0	16086	3790.307606315927	6
0	16087	3791.005690156961	5
0	16096	3792.050004989558	6
0	16099	3793.455053170044	5
0	16105	3794.329121714336	4
0	16112	3795.741151404447	3
0	16121	3797.289748640715	4
0	16125	3800.249444294287	5
0	16126	3800.889724259968	4
0	16133	3801.950919538452	5
0	16135	3802.716804498401	6
0	16137	3803.112040568295	7
0	16138	3803.444727430496	6
0	16148	3807.689667757498	5
0	16153	3807.835406556443	4
0	16158	3807.874771351511	3
0	16164	3808.218007713834	2
0	16170	3808.538744337116	1
0	16175	3808.886185187927	0
0	16193	3813.331606365331	1
0	16196	3813.398010018945	2
0	16197	3813.961250182921	1
0	16204	3817.361767672792	0
0	16243	3825.018679948116	1
0	16245	3825.174740586285	2
0	16248	3825.836399613259	1
0	16254	3826.610496541041	2
0	16257	3828.338630463705	3
0	16258	3829.50286435774	2
0	16264	3829.658495062461	1
0	16273	3830.76742225357	2
0	16276	3832.191052260886	1
0	16282	3832.527373165739	2
0	16286	3833.052125836709	1
0	16293	3834.844392109416	2
0	16294	3835.146655136038	1
0	16300	3835.73132771163	2
0	16302	3835.880773413132	3
0	16304	3837.16923218722	2
0	16309	3837.247823010619	1
0	16315	3837.459923594555	2
0	16317	3837.59869226362	3
0	16318	3837.624879591284	2
0	16323	3837.799721412841	1
0	16329	3838.829764986439	0
0	16350	3843.025218875523	1
0	16352	3843.73654566001	2
0	16356	3844.760168569848	1
0	16362	3844.775458912386	2
0	16364	3845.569736888265	3
0	16368	3846.709019396714	2
0	16373	3846.850478119207	1
0	16379	3847.142278479966	2
0	16382	3848.569344512315	1
0	16387	3848.684329400786	0
0	16405	3849.968617085764	1
0	16406	3850.67142475977	0
0	16413	3855.505458125696	1
0	16415	3855.741553238446	2
0	16416	3856.410706502499	1
0	16420	3856.427572516067	2
0	16422	3857.141863291157	3
0	16429	3858.74210278709	2
0	16438	3860.021529618975	1
0	16444	3860.692214546487	2
0	16445	3861.255217341592	1
0	16452	3861.979361340447	0
0	16472	3866.279561688678	1
0	16475	3867.569961645059	2
0	16477	3871.246575817339	1
0	16482	3871.259519517978	0
0	16488	3871.334984309474	1
0	16489	3871.906300133905	0
0	16526	3882.135171918911	1
0	16528	3882.355997296419	2
0	16529	3882.512090227141	1
0	16536	3885.646774681074	0
0	16577	3895.408599928875	1
0	16578	3895.628896149634	0
0	16589	3899.21137265758	1
0	16591	3899.437905704382	2
0	16593	3899.651575966116	3
0	16598	3901.464017448247	4
0	16599	3901.577044208911	3
0	16604	3901.584007245265	2
0	16610	3903.551226443273	1
0	16616	3903.673815259302	0
0	16652	3912.116823758552	1
0	16655	3912.433329890141	2
0	16657	3912.774036263578	1
0	16663	3913.933893956583	0
0	16682	3920.737021487031	1
0	16684	3920.762591312663	2
0	16686	3922.208328918197	3
0	16689	3922.535808403205	2
0	16696	3923.444452604011	3
0	16697	3923.807866876831	2
0	16702	3924.345914088769	1
0	16711	3925.255273783408	0
0	16718	3925.755161531493	1
0	16726	3929.021697760528	2
0	16730	3929.768938654236	3
0	16731	3929.868620234174	2
0	16743	3934.736057437077	1
0	16751	3941.093112453903	0
0	16757	3941.106903620847	1
0	16760	3942.666948020384	2
0	16761	3943.326237078622	1
0	16766	3944.027409278633	0
0	16804	3952.813785775623	1
0	16805	3953.688480598784	0
0	16833	3960.120231112454	1
0	16836	3961.992517581773	2
0	16837	3962.083345879623	1
0	16842	3962.301336795281	0
0	16883	3970.767327305292	1
0	16884	3974.179946889481	0
0	16891	3977.496236805163	1
0	16892	3978.597783386732	0
0	16906	3981.163401350479	1
0	16908	3981.873054671792	2
0	16910	3982.32214393141	3
0	16914	3985.115580231555	2
0	16920	3985.716287483571	3
0	16921	3986.111743524725	2
0	16927	3989.154037622344	1
0	16933	3990.058125886678	2
0	16935	3991.039758407427	3
0	16940	3993.457976601905	2
0	16945	3994.314539766521	1
0	16952	3996.298305119786	0
0	16958	3996.81861851788	1
0	16961	3999.343392603174	0
0	16986	4002.003125170825	1
0	16987	4002.581736767462	0
0	16993	4002.719783592281	1
0	16996	4003.638582001631	2
0	17001	4004.852813753981	3
0	17003	4005.278768156748	2
0	17008	4005.340078128283	1
0	17014	4006.009123640368	0
0	17029	4007.575777740826	1
0	17031	4008.198096337546	0
0	17063	4013.450314348272	1
0	17064	4013.494526287477	0
0	17087	4019.173306263101	1
0	17090	4021.271667801642	0
0	17109	4025.678243084264	1
0	17110	4026.206571096604	0
0	17142	4033.983088605426	1
0	17143	4034.116688162415	0
0	17160	4036.171919884396	1
0	17161	4036.715156556978	0
0	17172	4037.277875198071	1
0	17174	4037.298246409177	2
0	17177	4041.433387286605	1
0	17182	4041.487438036616	0
0	17199	4044.439113350894	1
0	17203	4045.693490038246	0
0	17215	4047.882705530022	1
0	17218	4051.183038110489	0
0	17224	4051.726788157012	1
0	17226	4053.787483299931	0
0	17281	4066.582453484916	1
0	17283	4067.565337349248	2
0	17286	4068.427302805463	1
0	17291	4068.684596678004	0
0	17297	4069.617853985972	1
0	17298	4070.040569393479	0
0	17311	4073.53686231368	1
0	17313	4074.386643455993	2
0	17314	4074.794973679339	1
0	17324	4076.45114843346	0
0	17331	4077.438655119426	1
0	17332	4077.64941704768	0
0	17377	4086.230650378457	1
0	17379	4087.082078695045	2
0	17382	4088.163060316364	1
0	17388	4088.508614690866	0
0	17402	4092.769988567975	1
0	17404	4094.15170990357	2
0	17406	4094.239058248265	3
0	17409	4094.357687984659	2
0	17415	4094.812456730322	1
0	17421	4095.288917591547	2
0	17423	4098.665923271714	1
0	17429	4098.906866428178	2
0	17431	4099.078787947661	1
0	17438	4099.392100019805	2
0	17441	4100.948203397948	1
0	17446	4101.449134763862	0
0	17452	4101.545598728367	1
0	17457	4102.371187804032	0
0	17475	4107.412443207677	1
0	17476	4108.535760995318	0
0	17487	4109.549644693195	1
0	17490	4110.749120111507	0
0	17501	4111.722595026848	1
0	17504	4113.060495981142	0
0	17559	4130.0262855727	1
0	17561	4131.127416496247	0
0	17615	4148.72371524868	1
0	17617	4149.907604622774	2
0	17618	4150.309924381918	1
0	17623	4150.327432394996	0
0	17662	4156.251242948188	1
0	17663	4156.638554063793	0
0	17677	4160.248277829757	1
0	17679	4161.337338817593	0
0	17694	4165.898091373807	1
0	17696	4169.011303338753	2
0	17697	4170.463825340813	1
0	17703	4171.064317971831	0
0	17709	4171.353487221004	1
0	17712	4173.700843299516	0
0	17854	4209.496511427431	1
0	17856	4210.159707963196	0
0	17870	4211.252253308142	1
0	17876	4212.64962438798	2
0	17878	4212.655853261276	3
0	17881	4214.907592053268	2
0	17887	4216.971793330764	1
0	17895	4219.259806688333	0
0	17926	4223.300349917562	1
0	17927	4223.960157158788	0
0	17958	4233.600955221044	1
0	17959	4235.339993777642	0
0	17965	4235.804576980206	1
0	17966	4236.045758733077	0
0	17981	4239.530449669587	1
0	17982	4240.497057381989	0
0	18020	4255.778507604153	1
0	18021	4257.380691672314	0
0	18038	4269.021966723241	1
0	18040	4270.494984576485	0
0	18068	4275.938170101238	1
0	18073	4276.301124355848	0
0	18084	4278.931933793631	1
0	18086	4279.460023809279	2
0	18088	4279.517865699311	3
0	18089	4281.129540553181	2
0	18094	4281.166818142633	1
0	18100	4282.07403837009	0
0	18128	4288.968329609546	1
0	18130	4290.495800448985	2
0	18134	4293.877484234264	1
0	18141	4295.059549516995	0
0	18164	4299.299019036981	1
0	18168	4299.968072779606	0
0	18174	4300.436801001837	1
0	18175	4300.447923597447	0
0	18214	4306.150070863335	1
0	18215	4306.690964946176	0
0	18305	4336.978723711871	1
0	18308	4337.222375038858	0
0	18329	4342.318709419572	1
0	18330	4342.995938440991	0
0	18373	4359.854321751799	1
0	18375	4359.999450383341	2
0	18376	4360.115247211224	1
0	18384	4362.937987885304	2
0	18386	4363.506187042275	3
0	18388	4364.898316469474	4
0	18390	4365.253422032366	5
0	18391	4365.321848961143	4
0	18399	4367.016108888357	3
0	18407	4369.245195443493	2
0	18413	4370.089984168064	1
0	18418	4372.149675401151	0
0	18441	4375.884276900002	1
0	18442	4376.487075668708	0
0	18456	4380.918464782327	1
0	18459	4381.584819678798	2
0	18465	4385.782274483145	1
0	18470	4385.831293003622	0
0	18476	4385.838728254963	1
0	18480	4386.81899156752	2
0	18483	4388.579781165844	1
0	18490	4389.229667720727	2
0	18492	4389.251990286459	3
0	18493	4389.888228833745	2
0	18499	4391.958559643316	1
0	18505	4391.996283880155	2
0	18509	4394.094802881332	1
0	18515	4394.566262940033	0
0	18576	4412.776989891388	1
0	18577	4413.885486135227	0
0	18587	4415.314240454311	1
0	18590	4415.54586056048	0
0	18630	4427.359301698249	1
0	18631	4428.53344775722	0
0	18645	4431.241031494423	1
0	18646	4431.271303982204	0
0	18668	4435.366349886226	1
0	18670	4435.515802037407	2
0	18672	4435.702957273055	3
0	18673	4437.37519635449	2
0	18680	4438.803712381251	3
0	18681	4438.853174367718	2
0	18688	4439.322344607325	1
0	18694	4440.25764345482	2
0	18695	4440.290248118293	1
0	18702	4440.95847947113	0
0	18708	4441.351743887623	1
0	18712	4441.892111905762	0
0	18729	4443.699872869711	1
0	18730	4444.197647413346	0
0	18779	4456.899028961619	1
0	18780	4457.050782713112	0
0	18799	4464.3120448949	1
0	18801	4465.55101796797	2
0	18805	4466.937449298902	3
0	18806	4467.168248271327	2
0	18811	4467.495467148189	1
0	18818	4468.082743809674	0
0	18835	4471.457108400654	1
0	18836	4471.503674626401	0
0	18880	4489.345078958317	1
0	18881	4489.856399916899	0
0	18925	4503.897038252282	1
0	18927	4503.986028370831	2
0	18928	4504.479593296256	1
0	18934	4505.246570242963	2
0	18935	4505.24799407749	1
0	18945	4508.097604739888	0
0	18957	4509.315012802874	1
0	18962	4513.352333889593	0
0	19000	4525.042324516096	1
0	19002	4525.530636486337	2
0	19003	4526.024436522789	1
0	19011	4526.978799407216	0
0	19022	4527.953450082402	1
0	19026	4529.035737466301	0
0	19033	4530.976832095282	1
0	19036	4531.242364568759	0
0	19043	4531.793887462826	1
0	19049	4533.386861251865	2
0	19054	4535.90980845601	1
0	19060	4539.26903826944	0
0	19067	4540.874512994867	1
0	19068	4542.343273242341	0
0	19074	4543.348834846658	1
0	19075	4543.947879802773	0
0	19081	4544.072976209312	1
0	19082	4545.005729074933	0
0	19102	4547.166369598194	1
0	19103	4547.51365592258	0
0	19125	4550.252631975406	1
0	19126	4550.982730949877	0
0	19163	4558.039880724852	1
0	19164	4558.790853330758	0
0	19204	4572.449222326406	1
0	19205	4572.495604872918	0
0	19229	4576.17312750355	1
0	19230	4577.215717588477	0
0	19252	4579.911335685475	1
0	19256	4581.930891766235	0
0	19269	4583.871872137687	1
0	19270	4583.941291920468	0
0	19284	4586.50880817409	1
0	19285	4587.326662379922	0
0	19301	4590.551213908153	1
0	19302	4590.978223966602	0
0	19308	4591.031157383091	1
0	19310	4592.916831238216	0
0	19326	4604.289531857432	1
0	19327	4604.327645410886	0
0	19333	4604.564447692922	1
0	19334	4605.215879915512	0
0	19361	4610.037060073688	1
0	19362	4610.72624507818	0
0	19376	4613.883576134912	1
0	19378	4614.006796117503	2
0	19379	4614.245228506839	1
0	19384	4614.580716114098	0
0	19407	4619.455600097853	1
0	19412	4621.964179843112	0
0	19421	4624.830259501592	1
0	19423	4625.669776645903	2
0	19424	4625.758640828403	1
0	19431	4625.822553137177	0
0	19442	4626.313185447664	1
0	19447	4629.265550504144	0
0	19461	4631.341960259625	1
0	19462	4631.807735914189	0
0	19486	4636.515669101853	1
0	19487	4636.637396755694	0
0	19499	4639.879222661407	1
0	19501	4639.900671136478	2
0	19505	4640.085229695981	3
0	19508	4642.124475101605	2
0	19513	4642.307712783348	1
0	19520	4642.597561529945	2
0	19522	4643.354707065035	1
0	19528	4643.819115660405	0
0	19541	4647.993384251958	1
0	19542	4648.958095204543	0
0	19553	4649.838458568599	1
0	19554	4650.018447060089	0
0	19560	4650.32699300291	1
0	19570	4652.847149231831	2
0	19571	4653.073836442604	1
0	19576	4653.339498443449	0
0	19599	4657.246950306754	1
0	19604	4658.891317147836	2
0	19607	4660.323813086079	1
0	19612	4660.392129574969	0
0	19621	4661.886568233511	1
0	19625	4663.235565109627	0
0	19663	4672.150959472854	1
0	19664	4672.368821101864	0
0	19670	4673.726476499153	1
0	19671	4673.760352490992	0
0	19687	4675.03223297206	1
0	19689	4675.197680731886	2
0	19692	4675.688334876584	3
0	19694	4676.284874851353	2
0	19702	4677.175066414197	3
0	19704	4677.933686730242	2
0	19709	4678.247218981163	1
0	19714	4678.641519462008	0
0	19728	4680.763657593523	1
0	19732	4682.8933514846	0
0	19744	4683.592461937608	1
0	19748	4686.069652321355	0
0	19754	4686.819935502194	1
0	19755	4687.132814921065	0
0	19778	4691.643006867141	1
0	19779	4691.945529877795	0
0	19792	4692.931012104456	1
0	19796	4694.839055016983	0
0	19808	4696.112518508118	1
0	19810	4696.320714057195	2
0	19813	4696.572415077607	3
0	19814	4696.906151344372	2
0	19820	4697.390553851286	1
0	19825	4697.924711994368	0
0	19838	4699.643112137513	1
0	19840	4700.673869579416	2
0	19842	4701.543136312268	1
0	19847	4702.042636027838	0
0	19854	4702.257469509417	1
0	19859	4705.984945489672	2
0	19861	4706.003849626245	3
0	19862	4706.76381773692	2
0	19869	4707.964413424128	1
0	19876	4710.757635541285	0
0	19882	4711.076874721888	1
0	19883	4711.18859605767	0
0	19890	4711.376558199782	1
0	19892	4711.625259390536	0
0	19899	4713.022230811395	1
0	19901	4713.142793537076	0
0	19907	4713.86360736091	1
0	19911	4716.070443568718	0
0	19918	4717.282620850222	1
0	19919	4717.36313752624	0
0	19936	4720.469268899647	1
0	19937	4720.636892458453	0
0	19998	4730.571948682934	1
0	20001	4732.362782514708	0
0	20029	4736.651907329699	1
0	20031	4738.285572150991	2
0	20035	4740.647588184304	1
0	20043	4742.266844139767	0
0	20089	4754.245458391852	1
0	20090	4754.902243951656	0
0	20152	4775.748881388475	1
0	20154	4775.786203300751	2
0	20155	4776.796310987353	1
0	20161	4777.861332131781	0
0	20169	4779.455038693542	1
0	20172	4780.883334246353	0
0	20184	4783.289696544917	1
0	20188	4784.108567859197	2
0	20192	4785.401000316345	3
0	20193	4785.604249440843	2
0	20200	4786.535355873041	1
0	20206	4787.076539518141	2
0	20210	4789.421216672687	1
0	20216	4792.091038895655	0
0	20236	4796.179168309654	1
0	20237	4796.430075939909	0
0	20244	4797.166193723917	1
0	20246	4797.357479970614	2
0	20247	4798.114564804844	1
0	20253	4798.931430452432	2
0	20256	4799.980528204754	1
0	20262	4801.135167312183	0
0	20302	4809.287773159073	1
0	20306	4812.384607589401	2
0	20308	4812.484365053317	3
0	20310	4813.395889577648	4
0	20312	4814.304911468195	3
0	20319	4816.183487146589	2
0	20325	4816.992945510476	1
0	20332	4817.263802912998	0
0	20338	4817.559841445846	1
0	20339	4817.717747524452	0
0	20407	4833.960671143358	1
0	20411	4837.676453598719	0
0	20472	4855.534799374682	1
0	20473	4856.288376732451	0
0	20488	4856.950442571554	1
0	20489	4857.94690742544	0
0	20495	4858.480349276119	1
0	20496	4858.481381836069	0
0	20530	4867.254502991727	1
0	20537	4870.285720735519	2
0	20539	4872.434364154275	3
0	20540	4873.836917690123	2
0	20546	4874.429038703432	3
0	20548	4875.517689046572	2
0	20553	4876.175982459137	1
0	20558	4878.677275421623	0
0	20569	4880.247824605935	1
0	20570	4880.647736866479	0
0	20587	4885.38277693549	1
0	20589	4886.134897884393	0
0	20672	4907.633726931456	1
0	20674	4910.558822084707	2
0	20677	4911.672318890934	1
0	20683	4912.765305665321	0
0	20689	4913.478531825492	1
0	20691	4913.89282003579	0
0	20709	4922.418731431686	1
0	20711	4922.849434241968	2
0	20712	4922.868196664749	1
0	20717	4924.196041574684	0
0	20765	4937.535043650421	1
0	20770	4937.892442426245	2
0	20771	4937.924259893974	1
0	20776	4938.050292111573	0
0	20827	4951.063967534824	1
0	20830	4951.474888852958	2
0	20832	4951.525499724272	3
0	20834	4951.840869167496	4
0	20835	4952.501132919775	3
0	20840	4953.085134952764	2
0	20847	4953.565297334755	3
0	20849	4953.844242007528	2
0	20856	4954.248095855094	1
0	20861	4954.42362228077	0
0	20901	4963.200349695615	1
0	20902	4965.062702147843	0
0	20923	4968.135689619152	1
0	20926	4968.567242557071	0
0	20943	4969.98692245199	1
0	20946	4973.949708068487	0
0	20952	4974.059465094254	1
0	20954	4974.169319343529	2
0	20957	4975.270141664396	1
0	20962	4975.404894284665	0
0	20969	4976.288463454814	1
0	20971	4976.949339667927	0
0	20979	4977.493461622148	1
0	20980	4977.573026510287	0
0	20988	4977.926479780364	1
0	20989	4979.538081347621	0
0	21035	4988.494037799243	1
0	21042	4990.739591877035	0
0	21060	4992.81756230867	1
0	21066	4997.460549679896	0
0	21077	4999.225861359074	1
0	21081	5000.287153717966	2
0	21083	5001.231007917815	3
0	21084	5002.656136822661	2
0	21089	5003.903711577823	1
0	21095	5004.152187484729	0
0	21115	5008.430619573655	1
0	21116	5008.76647286164	0
0	21122	5009.639648677395	1
0	21124	5010.405038233177	0
0	21130	5010.761812670248	1
0	21131	5010.876554276417	0
0	21138	5011.515601999146	1
0	21139	5011.942903131001	0
0	21181	5024.751541122164	1
0	21182	5024.903846320232	0
0	21280	5051.697410268517	1
0	21281	5055.768191825711	0
0	21293	5057.53104374334	1
0	21295	5058.149665426604	2
0	21296	5059.185556088573	1
0	21301	5060.153679095984	0
0	21352	5079.476193565309	1
0	21358	5080.414305766651	2
0	21360	5081.079089444604	3
0	21362	5082.176275123762	4
0	21363	5084.893384348409	3
0	21369	5085.396246731546	4
0	21370	5085.583899860748	3
0	21376	5086.068143343374	4
0	21379	5087.116719854915	3
0	21384	5087.123813064144	2
0	21389	5088.95305215246	1
0	21394	5089.274974789708	0
0	21403	5091.328738910575	1
0	21407	5092.584530829334	0
0	21413	5093.106218807894	1
0	21415	5093.219844179648	2
0	21417	5093.519891039395	1
0	21423	5095.523386028008	0
0	21429	5095.57248804435	1
0	21430	5095.615206211057	0
0	21438	5097.349673443396	1
0	21441	5098.653200148476	2
0	21443	5099.343264009739	3
0	21447	5100.480644740226	4
0	21450	5100.848561595084	5
0	21454	5102.762859387789	4
0	21461	5104.15285025316	3
0	21469	5106.550437110998	2
0	21476	5107.149181972668	3
0	21478	5107.99566357576	4
0	21480	5108.296420143113	5
0	21482	5108.342644516217	6
0	21483	5108.428059247848	5
0	21489	5108.77120758382	4
0	21494	5109.226008524022	3
0	21501	5109.702325666093	2
0	21507	5109.979834739974	3
0	21508	5109.999688790414	2
0	21515	5110.658221557134	1
0	21524	5113.821664072115	0
0	21579	5125.337541786896	1
0	21581	5125.509767454541	2
0	21584	5126.640681851936	1
0	21590	5128.57687177709	0
0	21622	5133.416584868414	1
0	21624	5134.622917479875	0
0	21652	5139.113387276205	1
0	21653	5139.861342206752	0
0	21660	5141.764478641409	1
0	21663	5142.176911216291	0
0	21720	5161.972284433688	1
0	21721	5164.216767409897	0
0	21736	5169.240568573708	1
0	21737	5169.910879445167	0
0	21773	5175.052558970548	1
0	21775	5176.277098461789	0
0	21789	5179.287519029371	1
0	21791	5179.420521319505	0
0	21829	5183.995300114965	1
0	21831	5184.060924852042	2
0	21832	5184.172344956144	1
0	21837	5185.448543161349	0
0	21886	5195.550886778945	1
0	21887	5196.725657558086	0
0	21923	5209.445253379177	1
0	21925	5210.280881275772	2
0	21926	5210.721961989205	1
0	21932	5211.743588447984	0
0	21967	5219.736582602108	1
0	21969	5221.016389982289	0
0	21986	5224.799791443128	1
0	21987	5225.258390815656	0
0	22027	5232.164774862704	1
0	22028	5232.468967683139	0
0	22034	5233.442276641739	1
0	22035	5234.001280434719	0
0	22041	5235.005018778913	1
0	22042	5235.163278429501	0
0	22069	5241.449016194542	1
0	22070	5241.564130394489	0
0	22093	5248.340912878875	1
0	22094	5250.584786861133	0
0	22139	5264.345852697416	1
0	22142	5265.743874203732	0
0	22154	5268.045964354887	1
0	22155	5269.133005075604	0
0	22167	5269.423042265535	1
0	22168	5271.362928971951	0
0	22181	5272.862041946065	1
0	22183	5277.314825594621	2
0	22184	5279.141002587721	1
0	22189	5279.28795895175	0
0	22201	5280.230317598566	1
0	22202	5280.752277254988	0
0	22210	5281.358788492127	1
0	22216	5283.168949691045	0
0	22229	5286.422071867497	1
0	22230	5287.121852902628	0
0	22268	5292.360177420111	1
0	22270	5293.933143450605	2
0	22271	5294.660104471676	1
0	22276	5296.882229995747	0
0	22307	5305.592308880469	1
0	22308	5305.603907199031	0
0	22351	5316.977882404587	1
0	22353	5317.499560440561	2
0	22355	5317.647526276159	3
0	22357	5317.714608760832	2
0	22364	5318.546846030685	3
0	22365	5319.138101820083	2
0	22370	5319.380103073232	1
0	22376	5320.408591521881	0
0	22391	5325.562469333749	1
0	22392	5325.893894638172	0
0	22403	5326.853384857221	1
0	22404	5327.201619068699	0
0	22417	5327.559073032901	1
0	22418	5329.275768999083	0
0	22436	5330.657126870588	1
0	22437	5331.138518435575	0
0	22455	5334.88292681541	1
0	22456	5335.781892215299	0
0	22488	5344.847373798297	1
0	22492	5346.178191419077	2
0	22494	5346.388835816514	3
0	22496	5347.397679567393	2
0	22501	5347.412990011604	1
0	22507	5348.510201797213	0
0	22515	5350.415551204272	1
0	22516	5350.963545790606	0
0	22526	5352.394570172273	1
0	22527	5353.262038125112	0
0	22533	5353.374961951028	1
0	22534	5354.826870730685	0
0	22552	5356.577124159504	1
0	22556	5357.43057081206	2
0	22559	5357.485073484203	3
0	22561	5358.493734344026	4
0	22563	5358.52146881424	5
0	22564	5360.231506788227	4
0	22571	5361.040484110825	5
0	22573	5361.926459778781	6
0	22575	5362.710215255438	7
0	22576	5363.207694515943	6
0	22581	5363.952662392534	5
0	22587	5365.674574192705	4
0	22593	5366.163300974587	5
0	22597	5367.016624806493	4
0	22602	5367.270638577111	3
0	22609	5371.249025123725	2
0	22614	5371.77331970646	1
0	22620	5372.065878683555	2
0	22622	5372.151553938129	3
0	22628	5374.009844964077	4
0	22629	5375.384396036736	3
0	22634	5375.638080880826	2
0	22639	5376.325545200084	1
0	22644	5377.339399614556	0
0	22655	5381.830118424591	1
0	22656	5382.194055669203	0
0	22660	5382.606348079726	1
0	22663	5382.945309095706	0
0	22688	5387.375152612324	1
0	22689	5387.546620010973	0
0	22752	5406.745201225375	1
0	22756	5408.014840666953	2
0	22757	5408.333861213673	1
0	22763	5408.361450850882	2
0	22765	5408.366804070516	3
0	22769	5411.287099850041	2
0	22774	5411.482833463086	1
0	22779	5412.064888389439	0
0	22801	5417.615995920936	1
0	22802	5418.231078069634	0
0	22943	5467.695971862096	1
0	22944	5467.970509394187	0
0	23002	5479.378197242414	1
0	23004	5480.718920547717	0
0	23019	5486.630213452995	1
0	23023	5489.781985606777	0
0	23029	5490.357008619702	1
0	23031	5490.455692363928	2
0	23033	5490.584959199459	3
0	23034	5490.625583765711	2
0	23039	5490.806181717815	1
0	23047	5491.513175577456	2
0	23051	5492.885208568987	1
0	23056	5493.737034709661	0
0	23067	5494.773077801554	1
0	23068	5495.143484270964	0
0	23074	5495.654035019102	1
0	23080	5498.013350844719	0
0	23099	5498.540181978857	1
0	23100	5499.702912837695	0
0	23114	5500.681304740521	1
0	23119	5502.798647290337	0
0	23134	5506.581062683802	1
0	23139	5507.417503752846	0
0	23157	5509.655729375179	1
0	23160	5510.673388039264	0
0	23172	5511.365611339862	1
0	23174	5512.973836866821	0
0	23233	5526.868277690071	1
0	23234	5527.769101572397	0
0	23240	5527.794472403707	1
0	23241	5528.090261937155	0
0	23260	5529.560709418578	1
0	23261	5529.599159022676	0
0	23279	5536.101614765908	1
0	23280	5536.691886599202	0
0	23286	5537.162446106559	1
0	23290	5538.103308016392	0
0	23309	5539.495525734985	1
0	23312	5541.62707367247	2
0	23313	5541.817000346739	1
0	23319	5542.413616630063	0
0	23383	5557.441381272372	1
0	23385	5557.672082592808	2
0	23387	5558.289536186288	3
0	23389	5558.319875544964	4
0	23391	5558.453557719372	5
0	23393	5559.245354079783	6
0	23394	5559.994241028672	5
0	23399	5560.080554606217	4
0	23406	5561.821646421386	3
0	23411	5562.091182999603	2
0	23417	5562.518728794031	3
0	23420	5563.562321556712	2
0	23426	5564.677285386269	1
0	23431	5564.959557934893	0
0	23442	5565.995569409271	1
0	23443	5566.173310524722	0
0	23461	5571.120242447734	1
0	23464	5572.262661136453	0
0	23468	5572.912248758656	1
0	23472	5574.026711015006	0
0	23501	5577.150849519255	1
0	23503	5577.393590611234	2
0	23505	5577.639300218276	3
0	23506	5577.720159798873	2
0	23511	5577.805551341851	1
0	23517	5577.999104720601	2
0	23519	5578.047111446796	3
0	23521	5578.237180330231	2
0	23527	5579.430894580508	3
0	23528	5579.793657296504	2
0	23534	5581.475506837211	3
0	23535	5581.772926556449	2
0	23543	5584.565748624283	1
0	23547	5586.017412384402	2
0	23554	5589.070173816133	1
0	23560	5590.952890800803	0
0	23568	5592.811527534707	1
0	23570	5593.653474291579	0
0	23617	5602.399757456369	1
0	23618	5603.078756745148	0
0	23624	5603.1484668225	1
0	23625	5603.219063422814	0
0	23642	5607.157651654301	1
0	23643	5607.281884342925	0
0	23704	5632.42119493525	1
0	23705	5632.928129355366	0
0	23832	5687.436031341813	1
0	23833	5688.370535992553	0
0	23860	5691.053914230827	1
0	23861	5691.527952684571	0
0	23872	5691.813570744755	1
0	23874	5692.033218830216	2
0	23878	5692.481276035552	3
0	23879	5692.502418950169	2
0	23884	5692.654086877093	1
0	23890	5693.012568836389	2
0	23891	5693.906488493624	1
0	23896	5694.07665646043	0
0	23902	5694.387675377974	1
0	23906	5695.568820879955	2
0	23907	5696.232965050316	1
0	23916	5696.953491924617	0
0	23934	5700.469049943909	1
0	23935	5700.940598966791	0
0	23941	5701.351524574714	1
0	23945	5703.466039085791	0
0	24010	5723.302013403666	1
0	24016	5724.321235370459	0
0	24045	5728.672192296779	1
0	24050	5733.481749892834	2
0	24051	5733.811856654542	1
0	24056	5734.025102658684	0
0	24069	5735.950583270128	1
0	24072	5737.514413162147	0
0	24078	5737.516940377559	1
0	24080	5737.707977966399	2
0	24081	5737.959827111705	1
0	24086	5738.393771287807	0
0	24106	5739.954035201023	1
0	24109	5740.855171360509	0
0	24140	5750.077769235552	1
0	24141	5750.315057248153	0
0	24157	5754.420075925223	1
0	24158	5754.678976761613	0
0	24199	5760.518356816023	1
0	24200	5762.061156888778	0
0	24207	5762.321751082417	1
0	24208	5762.9670498838	0
0	24242	5774.218259726632	1
0	24243	5774.57992609655	0
0	24250	5774.734310176238	1
0	24251	5774.88487529728	0
0	24259	5775.101107332877	1
0	24261	5776.044486356667	2
0	24264	5776.22050404341	1
0	24269	5776.314363185512	0
0	24295	5780.346491122634	1
0	24297	5782.036409156156	0
0	24312	5785.845434768907	1
[...]
4	116844	27675.675736306949	6.697236146429
4	116854	27681.115957247083	0.534900824185
4	116866	27684.139993671321	2.438293208772
4	116893	27695.333052729394	4.352166635955
4	116904	27696.28083877767	3.93751097143
4	116912	27698.205978812179	5.052368480433
4	116927	27700.097867537338	0.97183088189
4	116939	27702.709430625587	1.035772866711
4	116950	27707.042815244741	4.075709760437
4	116972	27718.670839345308	1.078779878026
4	116997	27731.070333950612	4.567447696795
4	117016	27732.576259539853	5.022012283102
4	117027	27733.217916974023	2.851575889627
4	117035	27734.89046918625	2.386647004483
4	117051	27739.49889054882	2.399891146655
4	117072	27742.479443627613	0.004339616586
4	117119	27764.433239884742	4.422927394818
4	117165	27768.275712270864	5.801678318685
4	117207	27776.146036197529	0.628350544984
4	117239	27795.59024929486	1.662161655668
4	117253	27804.541406121224	6.997481766678
4	117272	27806.399295699261	4.856514067812
4	117302	27809.543896169358	0.827133908668
4	117378	27821.322964128955	8.515939722167
4	117394	27822.39372572191	7.840315012371
4	117406	27825.524461531081	10.424848441697
4	117415	27826.973983007825	10.760809511421
4	117430	27830.853163207107	8.212410007998
4	117480	27835.41221702118	12.626500517571
4	117494	27836.972630352162	12.475580300172
4	117543	27844.159923701791	17.810833600557
4	117628	27858.736478000088	32.305239982004
4	117650	27866.800550036324	37.937713460885
4	117735	27878.476131316471	49.553527580172
4	117740	27879.618550395183	50.063130448395
4	117745	27879.726501431155	46.375435945574
4	117752	27881.185282034368	44.906885494124
4	117766	27884.716068633972	43.931884458876
4	117771	27885.548033812075	44.419177251955
4	117781	27889.072589577453	47.752770182061
4	117794	27890.639518196447	47.986508056861
4	117799	27893.207513948222	45.371452915487
4	117806	27894.739988554863	46.725209027975
4	117816	27900.644528694429	47.653586376538
4	117825	27904.800051706487	34.510953188302
4	117832	27907.23917510482	33.296427711732
4	117841	27910.366753524094	32.563704052288
4	117859	27912.373732577874	30.397438523279
4	117870	27913.114195377532	30.164793498088
4	117875	27913.288626018224	26.388735107968
4	117880	27914.335879071867	25.114926463379
4	117887	27915.92744367249	15.201006186597
4	117892	27916.685905398004	14.706651247073
4	117898	27918.116896690248	11.792467801647
4	117908	27921.479571506925	1.690973293113
4	117933	27932.700064159866	0.642517398285
4	117942	27936.630582983026	4.271029288032
4	117952	27940.488262883323	7.594671060389
4	117978	27956.515412778767	7.260187155446
4	117989	27958.453055627063	1.358212833519
4	117999	27961.424631072712	2.365335368044
4	118006	27961.995076075007	2.685065040347
4	118022	27971.408860994152	2.128537266557
4	118035	27975.26452809769	1.442065413875
4	118057	27986.751807312478	7.806226393194
4	118083	27994.393813123504	15.30029578231
4	118108	27998.860481290243	19.425872602331
4	118113	27999.063995549917	16.504392446557
4	118123	28001.483498744197	17.679017177773
4	118135	28003.463820866742	9.616695278119
4	118142	28003.71416948909	7.253895985946
4	118146	28004.367003326585	0.833599144005
4	118156	28010.633623767525	5.75378066674
4	118180	28019.81112330872	1.227197226362
4	118189	28022.105083261339	2.954417518703
4	118200	28024.945178320308	3.327355807502
4	118248	28034.367233786728	8.391702017311
4	118279	28040.781425234983	1.820818204212
4	118296	28046.624940374844	0.899772479921
4	118354	28060.265930532692	1.5691710109
4	118453	28076.751381351184	12.302375096392
4	118458	28077.238143910739	2.118010963333
4	118514	28096.719784262344	3.405920886384
4	118600	28114.667501475172	18.268393302723
4	118640	28119.160977603848	22.461371512385
4	118647	28122.338804914711	16.31052365868
4	118656	28126.066142574882	18.721640504994
4	118689	28134.881493713908	20.919868258391
4	118721	28139.369316545146	23.413746724969
4	118731	28142.063956790477	25.780827049055
4	118748	28147.863462642025	31.386208941027
4	118782	28159.063057513874	41.12081396163
4	118787	28159.136174248151	38.452255423299
4	118793	28159.521766452571	28.491696083786
4	118804	28161.318079944275	14.137819322382
4	118833	28166.649050299434	1.972830156511
4	118839	28169.274875673401	4.306362564589
4	118843	28169.814085245043	3.478118641227
4	118851	28175.653217349263	3.559507245106
4	118863	28191.013971342424	6.010208021809
4	118910	28196.909842956478	1.117846278418
4	118931	28199.905715775115	2.443557289549
4	118938	28201.555089372696	0.462367080209
4	118969	28211.516337055566	1.245389837985
4	118979	28213.768179741122	1.63727697317
4	119003	28224.771056496848	5.7666776672
4	119007	28225.334961854102	2.105496683879
4	119017	28229.831968393717	1.766076923399
4	119035	28235.165838108015	4.038520961181
4	119056	28236.812408547938	1.538632395077
4	119068	28238.393127417585	1.699963315464
4	119080	28239.861639628088	2.90145332333
4	119086	28242.787883792775	5.545145908364
4	119090	28244.622241338387	6.112143543245
4	119109	28256.314575272161	5.244250248633
4	119119	28257.449573534692	1.349194437043
4	119147	28263.650736758551	7.290655282329
4	119151	28263.920123617511	1.62225120993
4	119169	28268.878912294344	3.910334017862
4	119203	28274.213778879971	6.554720137279
4	119214	28278.739865701508	8.469374668674
4	119228	28282.315921207738	9.443874863458
4	119268	28292.351880642522	17.079049168178
4	119320	28300.312461454826	16.46763105972
4	119328	28302.109078248269	16.026586627996
4	119342	28306.563084299375	19.554133759824
4	119347	28307.585143306369	18.348643404655
4	119352	28307.659326468476	8.837577841515
4	119365	28310.871436046619	5.866120659101
4	119380	28311.806335797193	1.334099703533
4	119409	28319.650456485681	0.864343932622
4	119424	28322.227243580801	1.475847334117
4	119449	28326.259079676204	0.135597037527
4	119461	28329.684595461842	0.496384704194
4	119473	28331.106911430983	0.231179584057
4	119500	28341.200507904545	5.583568051525
4	119526	28344.799117427348	5.614751746964
4	119549	28348.032356935937	8.480729302871
4	119615	28361.898748399836	16.565608716611
4	119622	28362.726305851241	12.223277701588
4	119629	28363.451640916922	5.141705752347
4	119640	28364.32933453442	2.059165897907
4	119674	28373.386352175594	10.288776797672
4	119684	28374.011125796531	10.557389006
4	119691	28375.750075172182	11.423415881133
4	119703	28377.101455344674	10.974761860802
4	119718	28383.326400008485	16.609588125324
4	119747	28393.802473747656	1.872940338381
4	119764	28404.06377756692	5.203734809228
4	119815	28422.447878083346	2.928941369491
4	119822	28423.501241656554	1.903039734451
4	119829	28423.641426478495	1.033516140461
4	119906	28442.543453617954	5.135800538769
4	119917	28443.282151610264	5.038707916303
4	119924	28444.165807720253	2.875213186022
4	119929	28445.547876070696	1.621043679525
4	119964	28453.211902360611	1.543186862826
4	120003	28462.962804440163	1.550734731299
4	120029	28468.626709248638	1.621275039496
4	120033	28468.860892707417	0.952133274207
4	120043	28472.048673957146	1.722989971893
4	120066	28478.004963904762	4.604050431837
4	120083	28482.176964504862	2.678460969135
4	120094	28483.924745379879	0.962071391538
4	120115	28490.40664233669	1.253643502331
4	120132	28494.646847410449	0.568936511287
4	120152	28507.099033130972	5.069989236256
4	120156	28508.800483023232	4.246125680976
4	120180	28522.367206999976	3.702028532062
4	120203	28535.071680924649	2.715166044037
4	120229	28538.032438682217	2.121640294613
4	120242	28542.373798961371	4.686670589689
4	120255	28545.41087225078	6.365872727559
4	120259	28546.156087771782	3.434209664386
4	120278	28552.538386081037	1.237390161222
4	120287	28555.236177857212	3.398832855725
4	120301	28557.034619224812	2.683334218248
4	120305	28559.690785317605	4.430276574675
4	120321	28566.916353962959	7.025681443497
4	120377	28576.725965604868	6.850218603474
4	120388	28577.825079689258	7.140007660115
4	120395	28579.146583523321	3.467749283954
4	120404	28581.246546101525	3.308625527968
4	120465	28592.622286383188	1.479059390059
4	120472	28595.271369786711	3.296880042079
4	120513	28614.995219144304	0.838816301501
4	120531	28623.338524601494	2.765562627161
4	120535	28623.506880075027	0.208024997663
4	120543	28630.19245953741	0.702524134454
4	120555	28632.948695426234	2.648992577595
4	120566	28633.622801503021	2.447713377869
4	120598	28637.540649101714	0.623700278704
4	120608	28638.67457294951	0.416064857329
4	120656	28653.427624391918	12.168755150842
4	120693	28661.111223652389	19.725421127673
4	120700	28662.157895127996	19.60877008268
4	120705	28662.420683929543	18.644281490034
4	120713	28664.313932925733	14.655834196481
4	120809	28684.211839530279	17.720128456271
4	120824	28686.534361705012	17.637974100868
4	120850	28692.754881255064	21.850806853517
4	120855	28695.770302380556	15.479092203423
4	120860	28696.731331387271	11.127328487628
4	120865	28696.768323378976	9.941595401523
4	120876	28701.178584878561	11.089764512259
4	120919	28710.289092301935	19.173645864426
4	120933	28712.745450560423	4.544982528217
4	120940	28715.065369977435	0.212278686089
4	120961	28721.596685465453	4.620529571894
4	120967	28724.217706080562	5.382161358835
4	120974	28728.053456052259	6.710250007986
4	120982	28730.541510314531	2.647863722036
4	121019	28740.51379006535	3.385541049793
4	121061	28756.724376769151	0.768937773283
4	121074	28758.484104729375	0.149565645785
4	121157	28786.934502321281	3.360722092
4	121169	28789.98712182691	1.987017975392
4	121178	28790.734558210496	2.143349515105
4	121203	28795.432231942584	4.06029359742
4	121220	28797.740456194217	4.863342837968
4	121234	28799.886206783665	6.689487009696
4	121277	28810.755253901218	2.893594066755
4	121281	28810.772834180579	2.296839077793
4	121336	28825.075360914339	3.760931714063
4	121354	28829.052033358168	3.235756551426
4	121363	28829.711662887492	1.125754821789
4	121372	28832.005443480687	1.327255165241
4	121404	28840.63782773488	7.298943397525
4	121409	28842.113825231585	4.762735665223
4	121452	28853.279676412992	8.000927002792
4	121462	28855.628587417437	7.971547426008
4	121512	28867.940148490853	6.933202268639
4	121519	28870.459439915947	6.242273773446
4	121544	28874.848622961786	10.073926581333
4	121560	28876.832566542896	3.999875637568
4	121579	28884.853938535457	2.562689088805
4	121604	28890.983397869648	2.631491518384
4	121621	28894.705969420664	6.090558581163
4	121637	28897.492623368706	4.484954396243
4	121654	28900.271269677182	6.42489378967
4	121677	28908.964391753286	4.162884577983
4	121722	28920.902700944888	12.246964529852
4	121748	28926.87445948624	2.861440063065
4	121772	28934.764232356529	1.218871156494
4	121786	28945.714533013184	5.39128129417
4	121811	28957.032279061133	0.684218898036
4	121876	28977.867636987595	3.023016812989
4	121883	28980.796748861968	4.964563407107
4	121895	28981.770536627357	4.875540423428
4	121901	28984.94759705521	3.380861914162
4	121919	28990.917456775145	5.376655819941
4	122077	29025.070825138455	37.458262752474
4	122177	29044.265885786031	52.014902862734
4	122188	29045.539394900349	52.603507177861
4	122209	29049.905503893888	56.273652200441
4	122218	29050.666692956233	53.805636111904
4	122228	29050.895974516827	46.020772171812
4	122236	29053.009363149561	33.691815341155
4	122249	29054.430840046729	31.46978631987
4	122254	29055.425245025613	31.152445256982
4	122265	29058.127769109411	28.242314801538
4	122275	29060.010295992783	23.451688557286
4	122284	29063.435645639405	19.00238698187
4	122289	29066.321408040857	16.370300181646
4	122296	29069.373065117184	15.383469256904
4	122353	29080.069728604272	22.330507378359
4	122373	29084.847256549016	27.085519017431
4	122392	29089.893998771361	29.370281594306
4	122409	29093.265979902628	18.563969254535
4	122466	29101.974241539974	27.196624859364
4	122471	29102.274044624385	11.10607059478
4	122485	29106.805566111544	14.907728105206
4	122508	29112.910664267556	17.418298298811
4	122534	29118.244024085118	19.042009175991
4	122558	29121.57765141603	19.135026840754
4	122593	29127.615292931472	21.095243628262
4	122598	29127.833590600776	18.008615128821
4	122607	29128.557663964317	17.16504223929
4	122615	29131.01331832773	12.039034510156
4	122620	29131.37132808889	9.505210036362
4	122627	29132.41129762708	6.958968991426
4	122645	29138.090850478188	9.888078633343
4	122667	29139.709866043636	11.219060079549
4	122679	29143.168256449396	7.105230587952
4	122719	29151.673103687544	9.129429862396
4	122731	29156.32698744221	11.573631005239
4	122755	29158.06451484437	0.399921205059
4	122818	29172.674088826678	3.090155177155
4	122889	29186.304145868433	2.374204887506
4	122901	29187.587323540294	2.120126055338
4	122908	29188.011155529394	1.646776464171
4	122921	29193.127207617239	0.671194918839
4	122931	29195.894948796392	1.628130778081
4	122952	29198.473466932471	1.578015006913
4	122960	29199.903403738446	1.628092672268
4	122968	29200.248728325083	1.725920936381
4	123031	29212.031641592096	11.064621538302
4	123044	29215.948743897299	14.292501567583
4	123067	29220.939056773071	14.771627879229
4	123084	29224.325609295002	13.976359351148
4	123095	29226.628665962225	13.393539114357
4	123102	29226.916166141289	12.948962010713
4	123116	29234.525980967408	17.49732715611
4	123121	29234.886215126866	13.17808516084
4	123134	29238.482461398865	14.24843889203
4	123146	29241.353275269215	7.936057755905
4	123164	29242.554739470874	5.166762244441
4	123176	29246.410947029681	3.337138003761
4	123207	29253.507957673148	2.720524891401
4	123232	29262.22764648073	9.351393540236
4	123264	29268.814793859372	0.992650408697
4	123274	29270.912742135581	2.994218776228
4	123325	29285.636178995465	0.661069068629
4	123334	29291.113730479521	0.24695392027
4	123391	29306.22666970211	5.979937809112
4	123399	29307.35603689127	5.890938647336
4	123473	29322.862763926246	2.21444815849
4	123477	29323.654366753252	0.799343765885
4	123510	29334.492147598778	0.710371688629
4	123521	29337.616530333991	1.848383885818
4	123525	29342.658009693913	6.86663422894
4	123579	29353.402930510396	2.404571002765
4	123615	29360.649864702345	2.631905622373
4	123620	29361.481515808717	2.31072755825
4	123630	29365.435016855127	2.517940719717
4	123644	29367.005013001287	0.473800887824
4	123654	29368.242359132204	0.048796349118
4	123664	29373.652792581999	0.886653986228
4	123677	29377.515869017231	1.93564754286
4	123726	29386.496721189036	5.649483810836
4	123740	29388.36071227611	0.990505655201
4	123749	29391.600709262933	1.546727997383
4	123830	29409.570300655912	2.349912283076
4	123868	29413.04538917625	0.710797916954
4	123876	29414.175180993941	1.125216190664
4	123913	29422.788659741818	0.914078168872
4	123917	29423.578097345743	1.152203077842
4	123924	29426.351987983735	1.576967987559
4	123933	29428.606895331678	0.126515251455
4	123961	29437.861960980787	2.465088281182
4	124027	29448.733933226219	1.138847590741
4	124050	29466.278944992569	2.893953985811
4	124054	29467.181044346378	1.182656037379
4	124061	29469.336596322979	0.61296742791
4	124085	29473.704923425468	2.090395429368
4	124101	29476.403518935086	0.083680225135
4	124110	29480.815119889588	1.401197695499
4	124120	29481.160026247953	0.319698668911
4	124144	29487.5198173244	1.274600005162
4	124169	29497.646122448776	1.94526478351
4	124190	29503.332417249833	3.507357139722
4	124270	29519.431870398956	16.741784391702
4	124275	29519.790050651989	15.658260947972
4	124282	29520.634363674471	16.121329122115
4	124288	29521.556556809816	15.964898225944
4	124297	29523.791325065485	11.658387451909
4	124328	29528.893045335686	13.624082138938
4	124336	29531.402797488902	5.596461880337
4	124343	29532.132456181257	3.191745665313
4	124369	29542.010832033002	2.444824460427
4	124381	29544.523221409705	4.169440434718
4	124392	29547.624265658918	4.765294684074
4	124401	29548.739421679603	1.385655031555
4	124468	29564.436816209909	3.535319082598
4	124502	29570.101649482491	1.272315377876
4	124516	29571.609944039112	1.824286870426
4	124525	29572.292034478355	1.996912641518
4	124550	29580.027045507959	4.798716313577
4	124555	29581.611116181419	4.770382204047
4	124568	29586.367467851009	4.377449224399
4	124577	29587.645453631411	4.678812086087
4	124586	29588.454247830705	4.787575251028
4	124600	29593.115992042695	5.637283696296
4	124604	29596.004095273203	8.347152673743
4	124611	29598.939552308058	1.224154930615
4	124639	29604.788881710673	1.335269490715
4	124643	29604.791485613244	0.588885096449
4	124674	29617.024722395506	7.66895605224
4	124726	29628.921633671236	7.352555198383
4	124733	29630.50395367643	8.405688068365
4	124743	29631.886714988834	9.70302697706
4	124750	29632.501299444363	9.725913241346
4	124758	29634.533820195562	8.763218352669
4	124768	29634.877536819325	7.548294261078
4	124781	29637.194041603878	4.810623839803
4	124793	29638.366599257097	2.511663491786
4	124809	29645.917252224652	9.109059987949
4	124843	29650.178787616744	12.08430552624
4	124848	29650.836209799599	9.537691093808
4	124859	29653.988790718167	8.974086678915
4	124873	29655.756725305697	9.591522480043
4	124926	29662.185793844658	13.10316777647
4	124936	29662.639960187531	6.183078536469
4	124943	29664.556510131177	4.256667891289
4	124964	29674.798901250704	2.726413700996
4	124982	29677.104110191386	4.536793754197
4	124996	29681.752089626228	7.640820864247
4	125031	29685.189615156491	9.538329842311
4	125046	29688.642420939761	12.766948124171
4	125085	29697.316016245445	20.62014749451
4	125100	29700.722221918401	21.402222443589
4	125113	29703.276846101781	20.913017492674
4	125123	29705.1627717843	13.986044885287
4	125135	29707.019600166036	13.100138055835
4	125155	29709.563775418329	11.00071558797
4	125174	29715.041805650904	8.397614747597
4	125178	29715.132474206033	1.596326858826
4	125205	29725.631354297931	0.588512264023
4	125225	29731.836767225053	4.100413578269
4	125238	29735.685649731779	5.490462226561
4	125261	29741.57070482616	3.188155938897
4	125279	29744.522920517943	1.058419713678
4	125326	29754.102724467988	2.237390159567
4	125372	29765.012176372308	11.569092302782
4	125376	29765.587056622406	11.203768719386
4	125396	29769.880473785928	4.204353351332
4	125480	29779.017221217098	11.784206771213
4	125485	29779.691783436589	9.113401607426
4	125490	29779.935845661314	7.845414553931
4	125503	29781.434644285957	8.118768266264
4	125533	29784.858755324606	6.165498671502
4	125542	29786.359516584834	6.163643708503
4	125578	29793.610394344733	12.64779795884
4	125582	29793.850307722687	10.254959536834
4	125589	29796.176465426426	0.118339171499
4	125596	29798.687850757367	0.739193205005
4	125610	29807.116663904542	4.270835683447
4	125641	29814.348242089115	4.948050001965
4	125648	29814.892562980451	3.872891972268
4	125659	29817.131339150798	5.069410743045
4	125677	29824.69178522977	1.039506789059
4	125709	29828.985268645603	2.611267605305
4	125737	29833.311390652204	3.219480612364
4	125741	29834.435744908907	1.991730944849
4	125748	29838.007232213238	0.158511948919
4	125794	29849.220064170683	4.933321721934
4	125804	29852.171393599354	7.212791640807
4	125825	29854.803274885086	1.792060119904
4	125849	29858.774696108059	4.80248688467
4	125859	29860.509963538298	4.738905018498
4	125863	29862.93813703956	6.803327826945
4	125908	29869.284438800035	4.83636253189
4	125999	29886.251749834172	6.812928067294
4	126004	29886.335160458991	4.264343959537
4	126022	29893.184174150328	11.010430690384
4	126090	29910.20536079941	23.52964541306
4	126105	29915.374420833994	28.472639312021
4	126125	29916.260972735768	27.152583723234
4	126132	29917.266761071263	11.899448634606
4	126136	29918.352670850694	10.851598739366
4	126160	29925.150345924806	1.378172033212
4	126169	29926.32434245175	2.208083030479
4	126187	29929.786548923394	4.922631683377
4	126219	29937.161802519148	4.38582098552
4	126235	29942.610266371918	0.454068313152
4	126245	29946.493992756401	1.012117443951
4	126250	29947.982564599406	2.170338382614
4	126316	29964.581200571627	0.663423816342
4	126362	29971.372754688268	5.893426549407
4	126367	29972.053793909294	1.840427529794
4	126376	29973.528025222855	0.188523266128
4	126387	29975.347103523456	0.803162832124
4	126394	29976.792188715142	1.664587652253
4	126451	29985.898336819176	4.769680184005

