version 2
run Second-n3-14-20191016-17:04:10-8708
attr configname Second-n3
attr datetime 20191016-17:04:10
attr experiment Second-n3
attr inifile omnetpp.ini
attr iterationvars ""
attr iterationvarsf ""
attr measurement ""
attr network org.omnetpp.queueing.Pizza
attr processid 8708
attr repetition 14
attr replication ""
attr resultdir results
attr runnumber 14
attr seedset 14
param **.PS.maxInventoriedPS 3
param **.U1.interArrivalTime exponential(3s)
param **.U2.interArrivalTime exponential(5s)
param **.PS.serviceTimeForInventoryU1 exponential(1.0s)
param **.PS.serviceTimeForInventoryU2 exponential(1.2s)
param **.PS.serviceTimeDirectU1 exponential(1.4s)
param **.PS.serviceTimeDirectU2 exponential(1.4s)
param **.PS.probabilityProducing 0.7
param **.CS.serviceTimeU1 exponential(1.1s)
param **.CS.serviceTimeU2 exponential(1.4s)

vector 0 Pizza.EntryQueueU1 queueLength:vector ETV
attr interpolationmode sample-hold
attr title "queue length, vector"
vector 1 Pizza.CS queueLength:vector ETV
attr interpolationmode sample-hold
attr title "queue length, vector"
vector 2 Pizza.EntryQueueU2 queueLength:vector ETV
attr interpolationmode sample-hold
attr title "queue length, vector"
vector 3 Pizza.sink lifeTime:vector ETV
attr interpolationmode none
attr title "lifetime of arrived jobs, vector"
attr unit s
vector 4 Pizza.sink lifeTimeU1:vector ETV
attr interpolationmode none
attr title "lifetime of arrived jobs, vector"
attr unit s
vector 5 Pizza.sink lifeTimeU2:vector ETV
attr interpolationmode none
attr title "lifetime of arrived jobs, vector"
attr unit s
0	0	0	0
0	153	52.193504261431	1
0	154	52.866830127777	0
0	161	53.043163719621	1
0	165	54.870253662017	2
0	166	55.491110662108	1
0	171	55.670104914811	0
0	177	56.083140256511	1
0	179	56.467824393292	2
0	181	56.68447887162	1
0	187	57.301020926081	0
0	245	65.718986998544	1
0	247	66.010538554927	2
0	250	69.807870464088	1
0	258	70.681390802567	0
0	264	71.382766774559	1
0	265	73.313049147624	0
0	275	74.639719399609	1
0	278	76.389063448937	0
0	306	86.383539434441	1
0	308	86.404802171294	2
0	309	87.664809311694	1
0	319	89.77997910032	0
0	326	90.858244623803	1
0	328	91.176736681855	2
0	331	92.164236269652	1
0	336	92.706648918137	0
0	342	94.331669934215	1
0	344	94.553417402093	2
0	345	95.298707872851	1
0	351	95.753191640211	0
0	369	98.490789441725	1
0	370	98.75249734062	0
0	376	98.919229212723	1
0	379	99.340356848264	0
0	385	100.352408587842	1
0	387	101.035885940781	0
0	398	101.305584756976	1
0	400	102.223289803889	0
0	416	103.928776606836	1
0	418	106.10944260334	2
0	422	106.602781938309	1
0	430	107.393618734828	2
0	431	108.298047542711	1
0	436	108.627900984953	0
0	453	113.124410670397	1
0	458	115.137297613567	0
0	462	115.157990780534	1
0	467	117.006318676661	2
0	469	117.302971027062	3
0	472	118.447229346025	2
0	478	118.737912427532	1
0	484	119.346292553587	2
0	486	119.546503283343	1
0	491	119.691919324599	0
0	579	139.891703286211	1
0	581	140.813953676026	2
0	582	140.85677159332	1
0	589	141.391953553017	0
0	605	142.99623697882	1
0	608	145.499787254575	0
0	614	145.825396065837	1
0	616	146.384280701192	0
0	637	147.468476851648	1
0	642	148.034990859274	0
0	679	156.752295837837	1
0	680	156.803864787391	0
0	702	159.717728248183	1
0	704	159.922625358622	0
0	710	159.939733835669	1
0	711	160.436699858213	0
0	720	163.112465837467	1
0	721	163.483588405519	0
0	733	166.441978554502	1
0	736	168.277260949579	0
0	758	171.951470366638	1
0	762	175.372594137272	2
0	763	176.291315439014	1
0	768	177.01011499207	0
0	776	178.415020056115	1
0	777	178.879426911959	0
0	822	194.403895872825	1
0	823	194.454859710713	0
0	831	196.865330519543	1
0	832	196.945374361869	0
0	838	197.296724144217	1
0	840	198.181911030221	2
0	845	198.897048085909	1
0	850	199.212323193976	0
0	871	208.036601459395	1
0	875	208.484693755564	2
0	876	210.303183882292	1
0	881	210.474868889519	0
0	929	224.122787565667	1
0	934	225.407127770125	0
0	946	227.177825949506	1
0	947	227.51428141834	0
0	953	228.038306919818	1
0	957	229.973788147851	2
0	959	230.986679786288	3
0	960	231.660345845316	2
0	965	232.766501947487	1
0	971	233.245544152995	0
0	977	233.24715089879	1
0	978	233.581451586815	0
0	986	234.588288686434	1
0	993	237.781273203696	0
0	1019	242.006421785085	1
0	1023	245.084798884459	2
0	1026	246.342932102213	1
0	1033	247.258482345491	0
0	1040	248.357915449084	1
0	1041	249.85005110658	0
0	1055	250.728890377266	1
0	1065	254.839994254417	0
0	1096	259.374776639414	1
0	1105	262.378190152275	0
0	1111	263.977594964437	1
0	1114	265.865880977379	0
0	1138	267.656948819536	1
0	1141	269.382079676196	0
0	1165	273.800684990806	1
0	1169	275.211281292012	2
0	1171	277.168332550177	3
0	1173	277.312610350278	4
0	1175	278.095285486698	5
0	1176	280.286431977899	4
0	1181	281.057851470328	3
0	1192	283.696505003871	2
0	1201	285.511943032687	1
0	1207	286.532202331366	0
0	1228	289.029388595048	1
0	1233	291.117839627049	2
0	1234	291.264001453066	1
0	1239	291.311615812473	0
0	1268	296.456099678862	1
0	1272	296.903713190692	0
0	1279	297.752524673751	1
0	1281	297.753497830134	2
0	1282	297.824853702965	1
0	1288	298.621729456194	0
0	1294	298.661938577138	1
0	1295	299.146993742373	0
0	1324	313.031666636675	1
0	1326	313.310928982413	2
0	1328	315.816067464384	3
0	1332	318.214439975926	4
0	1335	320.075679910161	3
0	1341	321.567140478245	2
0	1347	322.414180239642	1
0	1352	322.796518930206	0
0	1364	324.071929666318	1
0	1367	325.182320658741	0
0	1389	327.335541587329	1
0	1391	328.424896923788	2
0	1395	328.647357299232	3
0	1397	328.792790439577	4
0	1399	328.90091986718	5
0	1403	331.134739559017	6
0	1405	333.320804899467	7
0	1407	333.476104788202	8
0	1408	334.129717232984	7
0	1414	335.307575721535	8
0	1417	336.379172463953	7
0	1422	336.797610418512	6
0	1427	336.939252106682	5
0	1433	337.092233274573	6
0	1434	337.316923641571	5
0	1440	338.482471905192	6
0	1441	339.116782414723	5
0	1446	340.641630854722	4
0	1450	341.43909443452	5
0	1452	342.691452290919	6
0	1457	343.446948258777	5
0	1465	345.432097220221	6
0	1467	347.185665773156	5
0	1473	347.577966991565	4
0	1479	348.492157252351	5
0	1481	349.057958622295	6
0	1482	349.480591740029	5
0	1486	349.613864213404	6
0	1488	349.803217086276	7
0	1494	354.439694047907	6
0	1500	354.79405979559	7
0	1501	355.23892258923	6
0	1505	356.277414492701	7
0	1509	360.385157194056	8
0	1512	360.995637313992	7
0	1518	362.720682927982	6
0	1525	365.262252249499	5
0	1530	365.51319317035	4
0	1535	366.248194445861	3
0	1539	367.24879255181	4
0	1544	369.094383291936	3
0	1555	373.191889106627	4
0	1556	373.419523803719	3
0	1561	373.483160084723	2
0	1567	374.344749573228	3
0	1571	375.580116054405	2
0	1579	376.221703811473	1
0	1584	376.445178140477	0
0	1590	377.887934210746	1
0	1592	378.954588303754	2
0	1594	379.44138502848	3
0	1600	382.125448016536	4
0	1602	382.84361412256	3
0	1607	382.916063501039	2
0	1613	383.820310517087	3
0	1616	385.394227796774	4
0	1619	386.018624260412	3
0	1625	388.280395376916	2
0	1630	388.287237847275	1
0	1635	389.247763074519	0
0	1639	389.310195352861	1
0	1643	390.902918223717	2
0	1645	392.99832841202	3
0	1655	398.82552689523	4
0	1657	400.3173581915	5
0	1658	401.312067951002	4
0	1664	401.6951256688	3
0	1670	402.15339032633	2
0	1675	403.165358007436	1
0	1680	403.647917098628	0
0	1708	406.605022149099	1
0	1709	407.835651495481	0
0	1716	408.27837469219	1
0	1717	408.40283716914	0
0	1723	408.967758182768	1
0	1725	409.022882260651	2
0	1727	409.10351355727	3
0	1730	409.679607970192	4
0	1732	410.051064728031	3
0	1740	411.263507049715	4
0	1741	412.216319004221	3
0	1747	412.688200888929	4
0	1748	413.313603852207	3
0	1753	413.752105352216	2
0	1758	414.698469163625	1
0	1763	419.223831318584	0
0	1769	419.568625209056	1
0	1778	421.864193768018	0
0	1798	425.251056971205	1
0	1799	425.819000461163	0
0	1835	432.027182913962	1
0	1840	432.926745411125	2
0	1843	433.372801287448	1
0	1852	434.324531434464	2
0	1854	435.072106102848	3
0	1857	435.256608506985	2
0	1864	436.520741626197	3
0	1865	437.713050946475	2
0	1870	439.093790006711	1
0	1876	440.001947299494	2
0	1877	440.401605512014	1
0	1882	440.932402773399	0
0	1886	443.338996070713	1
0	1889	444.29123703073	0
0	1901	446.837168487541	1
0	1904	448.537419003597	0
0	1951	462.110259747827	1
0	1954	463.883632072784	0
0	1982	471.721811284973	1
0	1984	472.052769475974	2
0	1985	473.908024942982	1
0	1990	473.927739043502	0
0	2010	475.145593371308	1
0	2015	479.00045933624	0
0	2033	480.76056449863	1
0	2035	481.125050447227	0
0	2042	481.688147536003	1
0	2043	483.352761176874	0
0	2107	503.102324398395	1
0	2108	504.139796445605	0
0	2112	506.392136641842	1
0	2116	508.528862159671	0
0	2129	514.657589477161	1
0	2135	516.5871487961	2
0	2140	517.976955193651	1
0	2144	518.679209377497	2
0	2150	522.711692624202	1
0	2156	522.772587992208	2
0	2157	523.116311684071	1
0	2167	528.002290782196	0
0	2173	528.079864991294	1
0	2175	529.374808023436	2
0	2176	530.923810640708	1
0	2181	531.009412575895	0
0	2188	531.838808104215	1
0	2192	534.336700024674	2
0	2193	534.709321593798	1
0	2198	534.962359135776	0
0	2204	536.833250819406	1
0	2209	539.044778072288	2
0	2213	541.989087175607	3
0	2214	543.650047816283	2
0	2219	544.215481283073	1
0	2224	545.298876777144	0
0	2257	552.045599191534	1
0	2258	553.164520426128	0
0	2268	556.129632993989	1
0	2270	556.52310233776	2
0	2272	557.64013603637	3
0	2275	560.755282335037	2
0	2283	563.32099034763	3
0	2284	563.483237660534	2
0	2293	565.486586083785	3
0	2294	565.745836411591	2
0	2299	565.812132683864	1
0	2304	566.369828175034	0
0	2320	570.03504035013	1
0	2322	570.048376920044	2
0	2327	571.308395265979	1
0	2333	573.085655140123	0
0	2339	575.077109320065	1
0	2340	575.107091047116	0
0	2380	584.39705601818	1
0	2385	585.823560947179	2
0	2388	587.246818714806	1
0	2393	587.354829564484	0
0	2410	589.862615188655	1
0	2413	590.848177596155	2
0	2414	591.888674292805	1
0	2419	592.034842753142	0
0	2426	594.190967633517	1
0	2428	595.096120302628	0
0	2436	597.010234916226	1
0	2437	597.147280427766	0
0	2444	598.588501341161	1
0	2448	599.654829074033	0
0	2460	600.770659291061	1
0	2462	601.320622624781	2
0	2466	603.266691618647	1
0	2471	603.417009236526	0
0	2485	604.480094451645	1
0	2487	604.830271613804	2
0	2489	605.205207614531	3
0	2493	608.110017287443	4
0	2495	609.313854609785	5
0	2496	609.552447227111	4
0	2503	610.265478470687	5
0	2504	610.846022707445	4
0	2513	612.491515328709	3
0	2520	613.264773778274	2
0	2527	613.828356562732	1
0	2533	615.370806391271	0
0	2554	618.8428508279	1
0	2555	618.921507476233	0
0	2567	619.623249087273	1
0	2568	619.742374744474	0
0	2574	620.117618415814	1
0	2576	620.20774532526	2
0	2578	620.300405942979	1
0	2584	621.164728305453	2
0	2585	622.278337223294	1
0	2590	622.491467506657	0
0	2618	626.436717426952	1
0	2622	627.317957252	2
0	2628	628.961064106264	3
0	2629	629.295013676178	2
0	2638	634.221817353452	3
0	2639	635.56547458417	2
0	2647	636.025417201187	3
0	2651	636.976644761752	2
0	2656	637.07733545209	1
0	2662	637.578175657385	0
0	2711	642.894244926021	1
0	2713	643.495412237227	2
0	2714	643.903697476665	1
0	2719	644.102104539336	0
0	2726	644.343070904011	1
0	2727	644.721862465284	0
0	2751	650.07910125216	1
0	2754	652.750072259323	0
0	2826	670.466621765057	1
0	2828	670.872055168212	2
0	2830	670.989677310726	3
0	2833	672.743638875896	2
0	2838	672.811039323465	1
0	2844	672.862509769826	2
0	2846	673.622138454805	3
0	2848	675.455723683044	2
0	2853	675.621190427543	1
0	2858	675.919614918239	0
0	2883	679.779642984048	1
0	2885	680.068750147446	2
0	2886	680.492352119095	1
0	2891	681.188749805977	0
0	2903	685.645555952452	1
0	2907	685.818434779897	2
0	2909	686.070587239494	3
0	2913	686.963178858512	4
0	2914	687.431668944342	3
0	2919	687.639195129692	2
0	2924	688.046005047823	1
0	2930	689.61392790039	2
0	2934	691.187661427111	3
0	2937	691.47849558572	2
0	2943	693.736463176146	3
0	2945	693.778557777293	4
0	2947	694.520137339709	5
0	2951	696.338914996108	6
0	2961	702.850638717181	5
0	2966	703.16820048662	4
0	2973	703.47175562645	5
0	2976	704.510686453891	4
0	2982	705.148798829097	3
0	2987	706.804508861204	2
0	2993	707.089629798954	3
0	2995	707.92014839238	2
0	3002	710.00121452205	3
0	3003	710.188432102654	2
0	3008	710.307925805116	1
0	3013	711.656594871976	0
0	3068	726.836182040021	1
0	3069	727.507244186074	0
0	3092	732.46891343557	1
0	3094	732.745708191962	2
0	3097	735.09342662787	1
0	3102	735.246286885533	0
0	3121	738.895003297193	1
0	3126	740.458338768353	0
0	3144	743.775100703095	1
0	3146	746.30291523264	0
0	3155	746.379020896861	1
0	3156	746.545545797227	0
0	3168	748.209140939062	1
0	3170	748.235199040742	2
0	3173	750.08187221049	1
0	3178	751.925607048335	0
0	3192	756.538008435309	1
0	3194	756.556111766525	2
0	3199	759.99828476453	3
0	3202	761.2926027267	2
0	3209	763.822489244553	1
0	3213	764.830897904456	2
0	3218	765.76428873593	3
0	3219	766.154693976832	2
0	3227	767.298561114456	1
0	3232	768.075868688524	0
0	3243	768.486988545926	1
0	3245	769.533069236428	2
0	3246	769.59545173092	1
0	3252	769.885397538071	2
0	3253	769.969199522085	1
0	3259	770.606809356147	0
0	3263	775.672681134416	1
0	3269	777.455347071191	0
0	3275	780.824370640299	1
0	3276	780.910873164597	0
0	3288	782.57806077421	1
0	3289	783.189994925794	0
0	3315	788.082325947853	1
0	3316	789.540714564834	0
0	3330	790.397577014549	1
0	3333	790.567647202071	0
0	3339	791.19892206466	1
0	3342	792.315404226466	0
0	3348	792.329535663398	1
0	3349	792.691575333713	0
0	3394	806.434209855892	1
0	3397	809.593553170735	0
0	3404	811.345571810863	1
0	3407	812.246130437721	0
0	3470	832.793739648286	1
0	3476	836.499410706158	0
0	3493	839.415779134566	1
0	3495	839.618218342488	2
0	3498	842.113306161083	1
0	3504	842.124727603805	2
0	3506	844.443456477195	1
0	3511	844.458241650556	0
0	3531	852.504563973459	1
0	3535	854.100739178635	0
0	3572	863.14642916105	1
0	3573	863.153826581667	0
0	3598	878.642714748974	1
0	3600	880.453736576444	0
0	3614	881.63035831341	1
0	3616	881.84743785495	2
0	3618	881.872461921034	3
0	3619	882.236624862482	2
0	3625	882.596924555412	1
0	3630	882.913461553848	0
0	3639	883.647837276719	1
0	3640	884.204754846869	0
0	3646	886.962732095521	1
0	3647	887.461170946395	0
0	3653	887.681942840323	1
0	3655	888.474816367761	0
0	3682	893.369752395703	1
0	3683	893.448042776313	0
0	3716	903.043661967054	1
0	3717	903.269854809695	0
0	3748	915.156595634588	1
0	3750	916.918001457578	2
0	3751	917.801162963659	1
0	3761	919.618749470798	2
0	3763	920.864331782991	3
0	3764	921.916118016925	2
0	3771	922.107891638982	3
0	3776	924.293282457954	2
0	3783	927.760389340419	1
0	3788	928.171487220772	0
0	3806	931.312077637495	1
0	3807	933.128724166229	0
0	3831	939.132156541663	1
0	3832	939.763202233372	0
0	3868	952.861449182717	1
0	3869	954.795945155701	0
0	3875	954.906547220756	1
0	3877	954.917649693351	2
0	3879	956.202630619846	1
0	3885	956.659849671234	0
0	3935	978.400548028066	1
0	3936	978.68117132279	0
0	3942	980.275507367648	1
0	3943	981.911419437095	0
0	3956	982.815949607388	1
0	3961	985.273753647326	0
0	3989	993.591571490524	1
0	3990	993.896916560984	0
0	3996	995.46693225429	1
0	3998	997.750127124748	2
0	4001	998.261313080284	1
0	4007	998.754196335685	0
0	4018	1000.32036570826	1
0	4019	1000.636610710349	0
0	4032	1006.62401653398	1
0	4035	1008.213948755527	0
0	4049	1010.952743285255	1
0	4050	1011.405598486847	0
0	4082	1018.402683159066	1
0	4084	1018.793902498014	2
0	4085	1019.256060114948	1
0	4091	1019.304750449592	2
0	4095	1019.486944340207	3
0	4098	1020.112117667867	2
0	4103	1020.133232794315	1
0	4109	1021.117784012946	0
0	4138	1026.554775306245	1
0	4143	1027.899136438968	2
0	4145	1029.058753819261	1
0	4150	1030.098632067976	0
0	4183	1046.855534683688	1
0	4184	1047.575060203885	0
0	4190	1047.841805650588	1
0	4194	1048.964753280205	2
0	4196	1049.59231538831	1
0	4202	1052.156903281034	0
0	4262	1070.748896188746	1
0	4265	1071.226669292429	2
0	4267	1071.89048331112	3
0	4269	1072.319071890296	4
0	4270	1074.327166928433	3
0	4279	1076.322441695974	4
0	4280	1077.437258320441	3
0	4286	1078.396267372968	2
0	4293	1079.033574438917	1
0	4298	1079.216416285945	0
0	4306	1081.195404168982	1
0	4307	1081.580383481241	0
0	4343	1088.428131651821	1
0	4346	1088.693919366827	0
0	4362	1090.961418395165	1
0	4363	1091.275018536841	0
0	4401	1102.636255783582	1
0	4402	1103.014785402946	0
0	4410	1106.48549582043	1
0	4411	1106.621170706435	0
0	4417	1107.088136984853	1
0	4419	1107.29192414182	2
0	4420	1107.500267547255	1
0	4425	1109.408560140819	0
0	4429	1109.637213063878	1
0	4435	1112.092603696973	0
0	4473	1123.585094631728	1
0	4474	1124.116383346508	0
0	4504	1135.094918618935	1
0	4507	1135.924652833863	2
0	4508	1136.219606419944	1
0	4513	1136.596284207341	0
0	4520	1137.205214740443	1
0	4521	1137.283499618451	0
0	4535	1140.231240150718	1
0	4536	1140.685875037149	0
0	4596	1151.028749412147	1
0	4597	1151.323844247992	0
0	4615	1154.231270927783	1
0	4616	1155.174003280676	0
0	4623	1156.693707317225	1
0	4624	1157.390354948703	0
0	4647	1167.032589898824	1
0	4649	1167.2065566455	2
0	4650	1168.401999842043	1
0	4655	1168.403198223661	0
0	4672	1173.426232643562	1
0	4673	1174.63444604437	0
0	4728	1184.112571883892	1
0	4729	1184.131078067173	0
0	4751	1190.636901746635	1
0	4755	1192.887736997509	0
0	4776	1195.596913607413	1
0	4777	1196.820264722386	0
0	4783	1197.365051855476	1
0	4785	1198.749105328096	0
0	4800	1202.318322234669	1
0	4804	1205.762151329945	2
0	4805	1206.982506454673	1
0	4810	1207.030578410196	0
0	4838	1218.780171407053	1
0	4839	1218.843469973684	0
0	4856	1221.982705241875	1
0	4861	1223.005021727923	2
0	4862	1223.127634977099	1
0	4869	1224.817011210479	0
0	4884	1228.666263063567	1
0	4886	1230.544343310892	2
0	4887	1232.972410207325	1
0	4892	1233.256190980596	0
0	4919	1241.458114250329	1
0	4920	1242.584372152674	0
0	4971	1253.7910703222	1
0	4972	1253.93047269691	0
0	4987	1256.6371220799	1
0	4989	1258.605599923413	0
0	4995	1258.829041146657	1
0	4996	1259.173192591654	0
0	5015	1262.03225242449	1
0	5018	1263.611386336446	0
0	5035	1268.710864186754	1
0	5038	1270.110478110624	2
0	5039	1271.122772432659	1
0	5046	1272.746024913354	0
0	5118	1310.360836947922	1
0	5119	1310.552686751677	0
0	5125	1311.30959845874	1
0	5126	1311.473199378131	0
0	5181	1342.56822897386	1
0	5185	1343.030898609153	2
0	5186	1344.516401852805	1
0	5192	1345.641360488609	0
0	5198	1347.578560669595	1
0	5199	1347.951924584055	0
0	5221	1353.724585203577	1
0	5224	1357.025690951317	0
0	5249	1358.869582817627	1
0	5252	1359.183984178464	0
0	5261	1359.709850146062	1
0	5264	1360.120642101799	0
0	5270	1360.268970362993	1
0	5272	1360.327628551619	2
0	5274	1360.393566495409	3
0	5276	1360.461009539635	4
0	5277	1360.926710944447	3
0	5282	1361.079176340678	2
0	5287	1361.345531073659	1
0	5293	1361.590737012935	2
0	5294	1362.233586557403	1
0	5299	1366.526075146001	0
0	5314	1370.481684026815	1
0	5315	1371.214454535871	0
0	5321	1372.179787666631	1
0	5323	1372.241075101195	2
0	5326	1372.393731033954	1
0	5330	1372.872264658612	2
0	5332	1374.084407479542	3
0	5342	1377.717586612912	2
0	5348	1378.973223752368	1
0	5354	1379.895170256011	0
0	5361	1380.620056596359	1
0	5362	1380.826740580994	0
0	5373	1381.650852262287	1
0	5374	1381.752621514378	0
0	5383	1383.664085662975	1
0	5385	1383.963439548993	2
0	5386	1384.100841604045	1
0	5391	1385.213463367065	0
0	5397	1389.281693841848	1
0	5400	1389.861283607271	0
0	5404	1391.824806036217	1
0	5409	1393.000733275537	2
0	5413	1394.041166903786	1
0	5419	1394.960831150872	2
0	5421	1395.856293844786	1
0	5428	1396.263285101499	2
0	5429	1397.614480881566	1
0	5436	1398.366023685625	2
0	5437	1398.551228384178	1
0	5442	1398.659025556681	0
0	5448	1398.808862431447	1
0	5449	1399.725829770518	0
0	5453	1400.134701538336	1
0	5458	1401.25800926543	0
0	5488	1410.970503058977	1
0	5491	1411.218546855871	0
0	5502	1412.108688896477	1
0	5504	1413.080417298931	2
0	5509	1414.585173007386	1
0	5514	1417.693376593491	0
0	5525	1420.301046461158	1
0	5527	1420.876694370792	2
0	5532	1421.551515678563	3
0	5539	1423.035689838171	4
0	5541	1424.296311432022	3
0	5548	1428.187633505181	4
0	5551	1428.362931796779	3
0	5556	1428.773664591987	2
0	5561	1430.20796221041	1
0	5567	1430.860460567441	2
0	5569	1431.08341584272	3
0	5573	1432.393287107107	4
0	5574	1433.079399373777	3
0	5578	1433.104337883649	4
0	5582	1435.266848640981	5
0	5585	1435.930109646395	4
0	5590	1437.7223067666	3
0	5594	1438.517780433129	4
0	5597	1439.459385525013	3
0	5601	1440.050014648365	4
0	5607	1442.033653996543	5
0	5609	1442.677353802605	4
0	5615	1442.795510085512	5
0	5616	1443.883356545269	4
0	5620	1444.124349483035	5
0	5624	1446.119121905953	4
0	5629	1446.152846238961	3
0	5635	1448.422826888241	2
0	5643	1451.282576530447	1
0	5648	1451.389688061401	0
0	5660	1452.225304404791	1
0	5663	1454.387327969828	0
0	5677	1456.805436102783	1
0	5679	1458.015509541845	2
0	5680	1458.121962224067	1
0	5685	1458.521927051282	0
0	5696	1459.514873663031	1
0	5697	1459.580162434313	0
0	5704	1459.960661001646	1
0	5706	1460.772624765142	0
0	5717	1461.574323334598	1
0	5724	1462.972426062996	2
0	5725	1463.296055584836	1
0	5732	1464.949691168719	2
0	5733	1464.982811956551	1
0	5738	1466.111910466737	0
0	5745	1466.797582828746	1
0	5747	1467.801974002103	2
0	5748	1468.038210108175	1
0	5756	1469.918833468816	0
0	5763	1470.012188716041	1
0	5766	1471.6130175099	0
0	5775	1472.848531689726	1
0	5776	1473.687284495016	0
0	5792	1476.056772116196	1
0	5794	1477.647095778382	0
0	5822	1481.450746772984	1
0	5824	1481.802864133398	2
0	5827	1485.10861130875	1
0	5834	1485.873138055134	2
0	5836	1486.398137346706	3
0	5840	1486.909415698518	2
0	5846	1487.863177828306	1
0	5851	1488.291813306672	0
0	5858	1488.966650307168	1
0	5860	1489.842175032814	0
0	5871	1491.599047334456	1
0	5874	1492.205844902491	0
0	5896	1504.152117226074	1
0	5897	1504.37546156733	0
0	5911	1507.061680562243	1
0	5913	1507.353441344227	2
0	5918	1509.714199911712	1
0	5923	1510.55386105767	0
0	5930	1510.744727977555	1
0	5932	1511.148968247734	2
0	5934	1512.197563473769	1
0	5940	1512.47861024622	2
0	5946	1514.547510066118	3
0	5947	1514.597933102756	2
0	5955	1515.131681834076	1
0	5960	1515.153494960226	0
0	5966	1516.575129475081	1
0	5973	1519.565654816155	0
0	5980	1519.767153254625	1
0	5981	1520.798309616529	0
0	5985	1521.948833526876	1
0	5989	1522.481406426633	2
0	5993	1522.997078445076	1
0	6000	1525.763345987792	0
0	6006	1525.771641391913	1
0	6008	1527.963895970437	0
0	6014	1528.14575553937	1
0	6015	1528.920182349848	0
0	6021	1529.856030075037	1
0	6025	1530.257589035638	0
0	6032	1530.479368145011	1
0	6033	1530.732731353665	0
0	6045	1532.742248066633	1
0	6046	1535.249613050432	0
0	6073	1544.92077147049	1
0	6075	1545.034521631043	2
0	6077	1547.767254258656	3
0	6079	1548.431533933131	4
0	6081	1549.594410963748	5
0	6083	1550.711408398844	6
0	6085	1552.244489855568	7
0	6088	1553.43719841478	6
0	6095	1554.260055449648	5
0	6102	1554.846290421109	4
0	6107	1555.199801879519	3
0	6111	1556.680846725185	4
0	6116	1557.953534415914	3
0	6123	1558.871475116299	4
0	6126	1560.21617700237	5
0	6127	1560.467521637128	4
0	6133	1560.950534246051	3
0	6141	1563.800580126812	4
0	6142	1563.965226384313	3
0	6147	1564.201375196946	2
0	6156	1566.772474974192	1
0	6162	1568.413121980616	2
0	6165	1569.158729247415	3
0	6166	1569.187569288457	2
0	6171	1569.340805398398	1
0	6176	1569.662566782385	0
0	6182	1570.196731287701	1
0	6184	1570.700576218443	0
0	6240	1579.97494417804	1
0	6244	1580.848852418517	2
0	6245	1581.041423666489	1
0	6252	1582.291178223819	2
0	6253	1582.768126738665	1
0	6259	1583.347228896406	0
0	6277	1587.879859532909	1
0	6278	1587.903991605623	0
0	6291	1589.050929989268	1
0	6295	1590.283188951397	2
0	6297	1591.413855756817	3
0	6299	1592.111614612314	4
0	6303	1595.32838439845	5
0	6305	1596.233546996953	4
0	6310	1596.643977509513	3
0	6315	1598.103256576896	2
0	6321	1598.11130570762	3
0	6323	1599.743560577516	2
0	6328	1602.849598297494	1
0	6335	1604.623399366118	0
0	6350	1607.365323124069	1
0	6355	1609.758323493836	2
0	6357	1610.029660242203	3
0	6358	1610.98530187618	2
0	6364	1611.590775584712	1
0	6370	1611.944567608609	2
0	6371	1612.070609383117	1
0	6379	1614.907558278539	2
0	6380	1615.351456753594	1
0	6386	1616.046581124714	0
0	6409	1618.379538417676	1
0	6410	1620.986782277508	0
0	6438	1625.027282055152	1
0	6440	1625.092805168914	2
0	6443	1625.59859381348	1
0	6450	1627.503843805838	0
0	6461	1627.746224990997	1
0	6464	1628.403536419049	2
0	6466	1629.559684179364	3
0	6467	1631.582810214997	2
0	6474	1632.542894302513	1
0	6481	1633.116216467035	0
0	6517	1638.752904157048	1
0	6520	1638.922369638194	0
0	6533	1642.345299408878	1
0	6536	1643.858105042139	0
0	6549	1647.776751440398	1
0	6550	1647.846554995451	0
0	6558	1649.709806733496	1
0	6559	1649.728941182142	0
0	6581	1651.876351114492	1
0	6584	1654.094053592923	0
0	6593	1654.846751667447	1
0	6603	1657.788902753637	2
0	6605	1657.917850874088	3
0	6610	1660.337652285929	2
0	6615	1660.344521594981	1
0	6621	1660.644898454073	0
0	6636	1664.320554136202	1
0	6637	1665.081388539568	0
0	6644	1665.419585283198	1
0	6645	1666.096601241188	0
0	6653	1667.547514370601	1
0	6655	1668.328312314904	0
0	6692	1676.330699898299	1
0	6695	1677.376594022837	0
0	6709	1680.1907607814	1
0	6711	1681.228742279037	2
0	6713	1681.729278878659	3
0	6720	1684.329205161558	2
0	6726	1685.249197274838	1
0	6733	1686.11812096742	0
0	6744	1688.584005375758	1
0	6749	1690.511271015133	0
0	6769	1692.845648774734	1
0	6771	1693.130663789192	2
0	6772	1693.67218558724	1
0	6777	1693.788140059711	0
0	6788	1694.699267225833	1
0	6790	1694.926904701928	2
0	6793	1695.814857836714	1
0	6799	1695.942086096919	0
0	6805	1696.195015380161	1
0	6807	1697.484798956868	0
0	6818	1698.425860490534	1
0	6820	1699.589080914705	0
0	6873	1710.743242352875	1
0	6880	1711.60810387967	0
0	6897	1716.91136265505	1
0	6899	1717.396883237058	0
0	6943	1726.102252429921	1
0	6944	1726.568705138594	0
0	6950	1726.573051140363	1
0	6951	1728.375547405355	0
0	6975	1735.662666069329	1
0	6977	1736.675080969738	2
0	6979	1736.956406973734	3
0	6980	1737.336224651299	2
0	6986	1737.505105955694	1
0	6992	1737.59067019405	2
0	6993	1738.522226384671	1
0	6998	1739.03489602236	0
0	7013	1743.652919342819	1
0	7014	1744.370787335924	0
0	7060	1753.829957727955	1
0	7061	1755.951551054715	0
0	7070	1761.433560369034	1
0	7071	1762.338786097026	0
0	7077	1762.939141905025	1
0	7079	1763.5102883269	2
0	7080	1765.397786650814	1
0	7084	1766.745890253711	2
0	7086	1768.52256142725	3
0	7090	1770.139915504916	4
0	7091	1770.20845923143	3
0	7101	1772.674951099986	2
0	7106	1773.288780225124	1
0	7115	1775.059214917695	0
0	7126	1776.025256605514	1
0	7130	1776.772864184533	2
0	7132	1777.046739324249	3
0	7133	1777.150553204128	2
0	7138	1777.342761039176	1
0	7144	1777.66187978585	2
0	7146	1778.083753525369	1
0	7152	1778.170028853963	2
0	7153	1778.746840592578	1
0	7159	1778.76189661028	2
0	7163	1778.983799793088	3
0	7165	1779.135478652854	2
0	7170	1779.556774276483	1
0	7174	1780.474687780854	2
0	7176	1780.785759475392	3
0	7181	1782.573326120811	2
0	7186	1785.301819279195	1
0	7190	1786.213931909339	2
0	7192	1789.350575523029	3
0	7199	1791.655596634603	2
0	7204	1791.686957270573	1
0	7209	1792.466305505553	0
0	7213	1792.984838797659	1
0	7215	1793.384435338922	2
0	7222	1793.961733092994	1
0	7226	1794.137886060752	2
0	7233	1795.476840768765	3
0	7234	1797.194896027729	2
0	7240	1798.495104015654	1
0	7247	1798.876591920867	2
0	7248	1799.178438391061	1
0	7257	1800.136616714121	2
0	7258	1800.365443878327	1
0	7264	1800.499036890032	2
0	7266	1801.716948025259	1
0	7275	1804.286305629732	2
0	7276	1804.710281429837	1
0	7281	1805.092827201878	0
0	7305	1809.779798217004	1
0	7307	1810.808481873684	2
0	7312	1813.626564212629	1
0	7317	1813.940941125078	0
0	7335	1818.374080549496	1
0	7342	1819.617078375023	0
0	7349	1820.233710366531	1
0	7350	1820.581879045838	0
0	7364	1823.294412361826	1
0	7365	1825.192911972175	0
0	7371	1826.170594969686	1
0	7373	1826.281739045121	2
0	7374	1826.816121067631	1
0	7379	1827.214318463272	0
0	7406	1830.094201958223	1
0	7409	1830.723029120582	2
0	7413	1834.452962206405	3
0	7416	1835.107453744673	2
0	7421	1835.236813386783	1
0	7427	1836.251790392534	0
0	7487	1859.65968476158	1
0	7490	1860.152815140025	0
0	7557	1874.430673949634	1
0	7561	1874.703277175875	2
0	7562	1877.262774244284	1
0	7567	1877.329010415823	0
0	7597	1885.695844674707	1
0	7599	1885.870824277153	2
0	7600	1887.197947719103	1
0	7606	1887.476946812083	2
0	7607	1887.590579253109	1
0	7612	1888.834240878754	0
0	7631	1890.738301441001	1
0	7636	1892.158912749513	2
0	7639	1892.329194070563	3
0	7641	1893.021498099288	4
0	7642	1894.906698240309	3
0	7647	1895.094847333093	2
0	7652	1895.149241668926	1
0	7658	1895.669876853939	2
0	7659	1895.75130466965	1
0	7663	1895.787756801595	2
0	7665	1897.3465656921	3
0	7667	1897.551043917222	4
0	7672	1899.241262319904	5
0	7674	1899.736012671615	4
0	7680	1899.745605016253	5
0	7681	1900.043180428752	4
0	7687	1901.555618435076	3
0	7693	1902.770096871851	2
0	7701	1904.695366805015	1
0	7707	1904.868303587223	2
0	7709	1905.740809658147	1
0	7714	1905.87236538332	0
0	7728	1908.659396153728	1
0	7729	1909.617332998191	0
0	7735	1910.037482020455	1
0	7738	1910.709040776648	0
0	7750	1911.099151937082	1
0	7751	1911.419964024928	0
0	7796	1927.392575254459	1
0	7799	1928.570472567673	0
0	7818	1933.111935056558	1
0	7821	1934.295483543164	0
0	7831	1936.098975733101	1
0	7834	1938.664792655297	0
0	7846	1940.094705939517	1
0	7849	1941.359340463554	0
0	7858	1944.197106186605	1
0	7860	1944.418927146898	2
0	7865	1945.505728886513	3
0	7866	1946.740240980214	2
0	7871	1947.046469915835	1
0	7879	1948.404401788798	2
0	7882	1949.075794998895	3
0	7883	1949.210640571804	2
0	7889	1950.315871830233	1
0	7897	1951.25340059786	0
0	7957	1964.866788455838	1
0	7958	1965.446138589522	0
0	7965	1965.877501510935	1
0	7967	1965.968063292068	2
0	7968	1966.394282347232	1
0	7974	1967.147488587329	0
0	7986	1969.205071621555	1
0	7989	1970.067076894019	2
0	7992	1971.382758052219	1
0	7997	1971.642330637072	0
0	8018	1975.063094540265	1
0	8023	1979.313881292469	0
0	8031	1981.085092798362	1
0	8032	1981.819097174624	0
0	8056	1988.097931073183	1
0	8057	1988.785906268818	0
0	8118	2006.458156643875	1
0	8119	2007.228191729142	0
0	8133	2012.89803106513	1
0	8135	2013.408911561085	2
0	8137	2014.462330869571	3
0	8139	2015.48126819299	2
0	8144	2015.949624488617	1
0	8149	2016.097708522339	0
0	8192	2038.48616758287	1
0	8194	2039.025143417703	2
0	8197	2041.406000996266	1
0	8206	2043.904274050147	2
0	8209	2045.989182770073	1
0	8215	2046.167676280579	2
0	8217	2047.890576042634	1
0	8225	2048.563507283719	0
0	8238	2049.209388955447	1
0	8240	2049.366853408519	2
0	8242	2050.264320200911	1
0	8247	2050.499655363955	0
0	8253	2051.536447468607	1
0	8257	2052.729620414901	2
0	8261	2055.115361025134	1
0	8271	2058.687362717949	0
0	8278	2059.823765199859	1
0	8280	2060.620783281285	2
0	8282	2061.205010393349	3
0	8283	2061.838145278067	2
0	8288	2062.069612894237	1
0	8295	2063.23175871367	0
0	8308	2065.245923575891	1
0	8309	2065.744912835968	0
0	8320	2066.542666914326	1
0	8325	2067.890756829313	0
0	8343	2069.043765789451	1
0	8344	2069.614897622654	0
0	8355	2072.050608274074	1
0	8357	2073.693950583204	0
0	8366	2074.160277752279	1
0	8373	2075.716789115027	0
0	8379	2075.758758698669	1
0	8389	2077.136092097006	0
0	8403	2081.103483856797	1
0	8405	2081.58291769779	2
0	8406	2082.348945351444	1
0	8411	2082.649407482478	0
0	8434	2084.971051643415	1
0	8435	2087.869305819536	0
0	8464	2099.101998540339	1
0	8466	2099.87031480974	2
0	8467	2100.248072312848	1
0	8476	2101.922702718223	2
0	8480	2104.894121989209	3
0	8481	2104.970269000488	2
0	8489	2105.781929724515	1
0	8496	2108.033340581078	0
0	8520	2112.359399490914	1
0	8524	2113.930597604857	2
0	8527	2115.734386854725	1
0	8532	2116.227898587639	0
0	8544	2118.348223014672	1
0	8545	2118.397668794491	0
0	8555	2118.712712652173	1
0	8557	2119.059830985826	2
0	8561	2120.697189998129	1
0	8566	2120.876231470423	0
0	8599	2128.597277561311	1
0	8604	2131.373696637452	0
0	8614	2134.628689392531	1
0	8618	2134.83393197508	2
0	8619	2134.860293369976	1
0	8630	2137.784277568609	0
0	8636	2138.129641890068	1
0	8638	2139.835383847145	0
0	8676	2153.718954801613	1
0	8678	2154.980547644926	2
0	8679	2156.173416137232	1
0	8685	2156.257394690401	0
0	8691	2156.473213369888	1
0	8692	2156.485670895046	0
0	8698	2157.037895798233	1
0	8699	2157.160181808936	0
0	8703	2157.928872311946	1
0	8709	2159.308169119857	2
0	8714	2161.226833071332	3
0	8717	2161.703190544467	2
0	8722	2161.865040799511	1
0	8730	2163.660920379008	2
0	8732	2163.901318671315	3
0	8736	2165.338229071586	2
0	8745	2167.978742509737	3
0	8746	2168.636378571451	2
0	8752	2169.126323545448	1
0	8758	2170.520110746357	0
0	8765	2171.706420068415	1
0	8767	2172.126386613092	2
0	8768	2172.317062328854	1
0	8774	2172.795144923469	0
0	8798	2176.044044047509	1
0	8799	2176.094892944808	0
0	8818	2179.17372148519	1
0	8820	2181.012915476572	2
0	8823	2181.7740337	1
0	8829	2183.637061685327	0
0	8835	2183.677918416612	1
0	8838	2185.188835370359	0
0	8895	2200.632125387676	1
0	8897	2200.977589825436	2
0	8899	2201.822209954351	3
0	8900	2202.066698339621	2
0	8907	2204.013173241006	1
0	8914	2205.811657183479	0
0	8949	2214.190806977035	1
0	8950	2215.324327788701	0
0	9029	2238.335351797055	1
0	9031	2238.830743843194	2
0	9032	2239.655723910353	1
0	9038	2239.996026081399	2
0	9040	2240.417914237493	1
0	9045	2241.08178225719	0
0	9058	2243.317957701969	1
0	9060	2243.951873407297	2
0	9061	2244.215355100656	1
0	9067	2244.513664056413	2
0	9068	2245.111415471134	1
0	9072	2245.813014670753	2
0	9076	2247.05415829286	1
0	9081	2247.156455629987	0
0	9085	2251.713455186674	1
0	9088	2253.315646953236	0
0	9092	2253.605872649803	1
0	9096	2254.590248613843	2
0	9101	2255.263743827072	1
0	9109	2256.376912107911	0
0	9138	2264.353755985994	1
0	9139	2265.594160976698	0
0	9146	2267.216553142344	1
0	9147	2267.415619223698	0
0	9226	2287.542270362268	1
0	9231	2288.071318678349	2
0	9235	2289.049062119435	1
0	9242	2290.036736873282	0
0	9262	2292.284527050673	1
0	9267	2292.812615860514	0
0	9291	2295.80836834931	1
0	9293	2297.17356460257	0
0	9315	2301.988989920315	1
0	9317	2303.799459100631	2
0	9319	2304.075800211143	3
0	9322	2304.153741412898	2
0	9327	2304.245176439051	1
0	9332	2304.283114121866	0
0	9367	2311.857652117863	1
0	9368	2311.924299500628	0
0	9396	2316.499569061881	1
0	9398	2316.686278630138	0
0	9404	2316.791742567359	1
0	9408	2318.779750686617	0
0	9424	2322.421540667724	1
0	9426	2322.616064795645	2
0	9433	2325.273487941041	3
0	9434	2325.902386251565	2
0	9440	2327.149425344832	1
0	9445	2328.425164039027	0
0	9473	2335.796615186395	1
0	9476	2336.095506233378	0
0	9499	2340.973691969533	1
0	9500	2342.471148362757	0
0	9609	2375.632665047469	1
0	9613	2378.580814151103	0
0	9633	2386.505270053605	1
0	9634	2386.680381940269	0
0	9640	2386.848474422918	1
0	9641	2386.927489738211	0
0	9648	2387.304371154166	1
0	9651	2387.899478351102	0
0	9705	2403.583180129399	1
0	9706	2403.594893864963	0
0	9718	2407.935376199511	1
0	9720	2408.064174840275	2
0	9725	2410.092784003955	3
0	9727	2410.600439174799	4
0	9728	2411.154853033844	3
0	9733	2411.309654603576	2
0	9739	2411.390653523941	1
0	9748	2413.413792914818	2
0	9752	2415.095007506888	1
0	9757	2415.355380499183	0
0	9763	2415.914517854602	1
0	9765	2417.48077285476	0
0	9771	2417.985653688529	1
0	9773	2418.581721963057	2
0	9775	2418.851438013205	3
0	9776	2419.354508197239	2
0	9782	2419.618535187666	1
0	9789	2422.358439442217	0
0	9795	2422.551357162343	1
0	9796	2422.655218819045	0
0	9808	2423.519936542358	1
0	9813	2424.298538919079	2
0	9814	2425.102104375528	1
0	9819	2425.859701704781	0
0	9823	2426.505912412697	1
0	9831	2427.827387000954	2
0	9834	2428.629406441155	1
0	9839	2428.912934238124	0
0	9845	2429.185119787946	1
0	9846	2431.237390372208	0
0	9850	2431.639827294376	1
0	9852	2433.535074352055	2
0	9856	2435.268809485697	3
0	9858	2436.017215189309	2
0	9866	2436.983098324463	1
0	9871	2437.498476599062	0
0	9881	2438.696790322309	1
0	9882	2439.100133774979	0
0	9886	2440.342690659227	1
0	9890	2444.315679140996	0
0	9919	2449.055677517433	1
0	9921	2449.923360952189	2
0	9925	2450.336629542267	3
0	9926	2450.716221243746	2
0	9931	2450.909190085811	1
0	9939	2453.298022421691	0
0	9954	2454.52229182897	1
0	9962	2464.965823610319	0
0	9977	2467.611266581872	1
0	9983	2470.188004365934	0
0	9990	2471.167643175436	1
0	9991	2472.366052599503	0
0	10019	2475.946068890861	1
0	10021	2476.892805737501	0
0	10027	2477.07976842665	1
0	10029	2478.52535211373	0
0	10057	2484.127759375945	1
0	10058	2484.289479695884	0
0	10065	2484.807861167027	1
0	10066	2486.919563215889	0
0	10089	2496.707758434807	1
0	10090	2497.048154215933	0
0	10111	2505.102330313883	1
0	10113	2506.409695270515	0
0	10124	2506.944192318448	1
0	10126	2508.052675550447	2
0	10130	2509.064473004305	3
0	10132	2509.339409086476	4
0	10134	2509.918455530634	5
0	10143	2513.996729362421	6
0	10146	2515.055682266712	5
0	10151	2515.694169282202	4
0	10157	2517.919576561659	3
0	10162	2518.394527654649	2
0	10166	2518.468032565184	3
0	10170	2519.127458964583	4
0	10174	2521.561520808221	3
0	10179	2521.74820147383	2
0	10184	2522.305396634564	1
0	10190	2522.966708326922	2
0	10192	2526.092380322626	1
0	10197	2526.675489507462	0
0	10219	2529.238986321634	1
0	10221	2530.04448282925	0
0	10228	2530.741664620432	1
0	10229	2531.194426163989	0
0	10235	2531.212626206158	1
0	10236	2532.088434487489	0
0	10248	2534.957876335336	1
0	10249	2535.108900770172	0
0	10256	2535.881458990803	1
0	10257	2536.070158812747	0
0	10317	2554.988497370492	1
0	10319	2555.068123986725	2
0	10320	2556.329422294941	1
0	10325	2556.914340813577	0
0	10331	2557.429704449922	1
0	10332	2557.49737450065	0
0	10345	2560.157831283904	1
0	10348	2561.818540678749	0
0	10357	2564.118199067192	1
0	10365	2567.042263097737	0
0	10372	2569.074401625661	1
0	10373	2569.103033775449	0
0	10449	2584.247934611354	1
0	10451	2585.166266770185	2
0	10452	2585.242254375274	1
0	10458	2585.389896706341	2
0	10459	2585.592764556531	1
0	10465	2586.065137395504	2
0	10467	2586.77095658785	1
0	10472	2586.789971619485	0
0	10505	2600.734028827918	1
0	10506	2601.186422791543	0
0	10521	2602.575469981023	1
0	10523	2603.104325868844	0
0	10547	2611.796107209557	1
0	10548	2612.226847723032	0
0	10594	2619.77282281062	1
0	10595	2619.896352672374	0
0	10608	2621.641500365639	1
0	10609	2622.31969974619	0
0	10615	2622.81710741606	1
0	10616	2622.939428739988	0
0	10625	2624.068342967052	1
0	10626	2624.4915042446	0
0	10671	2634.906036870951	1
0	10673	2636.781040165049	2
0	10675	2636.801835440526	3
0	10676	2637.324391018208	2
0	10681	2637.41003809593	1
0	10689	2637.798204919983	0
0	10734	2649.307167861186	1
0	10735	2649.319284912425	0
0	10753	2652.362761104416	1
0	10756	2654.092015684903	0
0	10820	2673.260487860102	1
0	10821	2673.619804945956	0
0	10853	2683.565934865732	1
0	10854	2683.580398507494	0
0	10899	2698.583179230441	1
0	10902	2699.471992985201	0
0	10913	2700.217486193702	1
0	10915	2700.906849436177	2
0	10917	2701.157260054429	1
0	10924	2703.084577092484	2
0	10925	2703.540116260968	1
0	10930	2703.605563830375	0
0	10955	2716.718830067409	1
0	10957	2716.886333688859	0
0	10974	2719.296493384239	1
0	10980	2720.935078697793	2
0	10982	2722.712086847181	3
0	10983	2723.809961892215	2
0	10989	2725.38883496475	1
0	10995	2726.907470541374	0
0	11004	2728.966939545275	1
0	11006	2729.401331077297	2
0	11012	2730.944495652025	1
0	11018	2731.335713984726	2
0	11023	2734.367619284809	1
0	11028	2734.73439654631	0
0	11036	2735.746308417127	1
0	11037	2736.383202606306	0
0	11061	2739.165645284349	1
0	11062	2739.304035949616	0
0	11076	2742.118799034393	1
0	11077	2744.197310639398	0
0	11134	2758.601747869177	1
0	11135	2758.625070562125	0
0	11158	2768.010025862414	1
0	11159	2768.19626824063	0
0	11163	2769.516977830433	1
0	11167	2769.8110705607	0
0	11199	2779.531402840936	1
0	11201	2781.073802090743	2
0	11208	2783.428732476966	3
0	11209	2783.462636613584	2
0	11214	2783.815320774167	1
0	11219	2784.391435198002	0
0	11227	2785.213719689139	1
0	11228	2785.747298315974	0
0	11275	2798.019176260374	1
0	11276	2799.490152466711	0
0	11282	2800.016964090339	1
0	11284	2800.25009162223	2
0	11285	2800.798411722841	1
0	11290	2800.911330542614	0
0	11296	2800.933544403628	1
0	11297	2801.195267276082	0
0	11323	2813.496124713943	1
0	11324	2813.654876573431	0
0	11332	2813.859219679586	1
0	11333	2813.864744257733	0
0	11346	2816.28666528288	1
0	11348	2816.429427398225	2
0	11349	2816.627367336749	1
0	11355	2816.726073008292	0
0	11362	2817.253565300938	1
0	11363	2819.430865013906	0
0	11390	2823.587049281051	1
0	11392	2824.48956035074	0
0	11407	2829.057875204511	1
0	11409	2830.441812264996	0
0	11437	2834.415036485205	1
0	11440	2836.373905144065	0
0	11458	2841.090816501491	1
0	11460	2841.402373445093	2
0	11462	2842.471194039353	3
0	11466	2844.760359910951	2
0	11471	2845.29972141445	1
0	11477	2845.339927401214	2
0	11479	2847.582639700697	3
0	11481	2847.684333612793	4
0	11484	2848.300175697789	3
0	11491	2849.63377769785	2
0	11496	2849.952582514551	1
0	11501	2850.393467923163	0
0	11505	2850.481035455251	1
0	11507	2851.340384103784	2
0	11512	2852.523343842055	1
0	11519	2854.107007685526	0
0	11536	2855.164654649267	1
0	11540	2856.338088349897	2
0	11542	2856.463915411805	3
0	11543	2857.587959693948	2
0	11548	2857.624913348328	1
0	11553	2857.92864501943	0
0	11571	2861.770683296525	1
0	11572	2861.785022977569	0
0	11581	2862.958196824097	1
0	11586	2865.267579395984	2
0	11587	2865.937002937553	1
0	11593	2866.339596644578	0
0	11617	2869.404655674812	1
0	11618	2870.19568956151	0
0	11625	2872.458956307031	1
0	11630	2874.203133459453	0
0	11648	2874.91258448682	1
0	11649	2876.708273155103	0
0	11670	2880.192667390981	1
0	11673	2881.471901311789	0
0	11681	2882.056943304617	1
0	11682	2882.092268976615	0
0	11705	2886.693162753772	1
0	11706	2887.37127823225	0
0	11767	2912.315215851513	1
0	11770	2913.504205750216	0
0	11794	2919.166384415939	1
0	11795	2920.098931191087	0
0	11801	2920.576842266753	1
0	11802	2920.602176112438	0
0	11808	2920.761790027113	1
0	11809	2922.052381665659	0
0	11815	2924.36154926093	1
0	11816	2924.425175160337	0
0	11845	2928.372825196436	1
0	11846	2928.517639709575	0
0	11860	2930.296340235862	1
0	11863	2930.768428840551	0
0	11869	2930.961336685706	1
0	11870	2931.890085131813	0
0	11879	2934.019979935298	1
0	11886	2935.142354119113	0
0	11909	2938.959290505326	1
0	11914	2940.723533032889	0
0	11947	2945.804086805218	1
0	11948	2947.784024492868	0
0	11955	2950.124795010173	1
0	11956	2951.850243362981	0
0	11963	2953.981343733621	1
0	11964	2954.164430824198	0
0	11991	2960.114301267501	1
0	11995	2961.268569225705	2
0	11997	2962.068990682656	3
0	11999	2962.535686970891	4
0	12000	2963.663741490029	3
0	12006	2964.465298785997	4
0	12008	2965.681515716743	3
0	12014	2966.892612379911	2
0	12020	2968.037030115477	3
0	12022	2968.134866342017	4
0	12025	2968.458857664056	3
0	12030	2968.689087567826	2
0	12036	2969.768663185739	1
0	12041	2970.144264972492	0
0	12050	2974.065439575438	1
0	12052	2974.309706551646	0
0	12068	2977.215161161999	1
0	12072	2978.949362443216	0
0	12090	2984.859304478335	1
0	12093	2985.780618186149	0
0	12131	2995.891985983599	1
0	12133	2997.511158984479	2
0	12137	2999.671811432487	1
0	12143	3000.418734955878	0
0	12151	3001.98157069554	1
0	12152	3002.156972389787	0
0	12234	3029.739985620218	1
0	12235	3029.961959426022	0
0	12242	3030.016201110704	1
0	12245	3030.872387945026	2
0	12246	3031.286710076033	1
0	12252	3031.838604129282	0
0	12274	3039.392840544677	1
0	12279	3041.382011723359	2
0	12280	3041.523755426567	1
0	12286	3041.996868643498	2
0	12287	3042.274745291108	1
0	12294	3043.697720649226	0
0	12439	3098.322850591932	1
0	12441	3099.039603414072	2
0	12442	3099.755553701376	1
0	12448	3099.915969665984	2
0	12449	3099.943969901624	1
0	12454	3099.981150671026	0
0	12495	3111.885006752133	1
0	12496	3112.998213610784	0
0	12520	3117.716283721483	1
0	12522	3118.285784213963	2
0	12524	3119.005861663764	1
0	12530	3119.984690763363	0
0	12536	3120.09000916959	1
0	12540	3121.495549283482	2
0	12541	3121.699664764938	1
0	12546	3122.659554479899	0
0	12573	3126.62178841117	1
0	12577	3127.55052133264	2
0	12579	3127.560183720356	3
0	12580	3128.442503419146	2
0	12585	3128.62310515778	1
0	12591	3128.937422377182	2
0	12593	3129.366928858748	1
0	12598	3129.60873396789	0
0	12629	3135.175579368842	1
0	12634	3137.632119195809	2
0	12635	3138.044093898381	1
0	12641	3138.943578281598	2
0	12643	3139.257635361264	3
0	12644	3140.207455409279	2
0	12652	3141.185754042048	3
0	12653	3141.20878283566	2
0	12659	3141.44139677988	3
0	12660	3142.598157885899	2
0	12666	3142.714104437808	1
0	12674	3144.92238989327	0
0	12693	3146.963768255279	1
0	12694	3147.039723151253	0
0	12719	3150.834664015888	1
0	12720	3151.025355691653	0
0	12789	3172.618959402783	1
0	12790	3172.687730882008	0
0	12804	3174.479190999219	1
0	12805	3175.580386983983	0
0	12839	3187.11939503177	1
0	12841	3187.911489507472	0
0	12847	3187.925276398843	1
0	12848	3188.0874962985	0
0	12926	3211.746545460304	1
0	12927	3212.082878743302	0
0	12946	3217.090908523108	1
0	12948	3217.137257176883	2
0	12949	3218.933550691544	1
0	12955	3219.818182756495	0
0	12961	3220.230144617899	1
0	12962	3220.750550515252	0
0	12977	3223.063607764518	1
0	12981	3224.635298324569	2
0	12985	3225.54223355293	1
0	12992	3225.736952384934	2
0	12993	3226.513152898949	1
0	12998	3226.708296672833	0
0	13006	3227.087815013334	1
0	13008	3227.438368217621	2
0	13012	3228.368586608393	1
0	13018	3229.829864408642	0
0	13030	3231.819059711074	1
0	13031	3233.626430769189	0
0	13072	3241.832845856995	1
0	13075	3242.386790727392	2
0	13076	3243.35924824081	1
0	13083	3244.489796843559	2
0	13085	3244.519849848686	3
0	13092	3246.286984258974	2
0	13098	3246.996869585576	1
0	13104	3247.24538542519	2
0	13105	3247.492618384489	1
0	13111	3247.76157526283	2
0	13114	3248.946689318975	3
0	13116	3249.057895197634	4
0	13117	3249.377250892864	3
0	13124	3250.283887138009	2
0	13130	3252.287727377635	1
0	13135	3253.945257977207	0
0	13288	3293.614964358006	1
0	13289	3294.600920508693	0
0	13296	3295.531765640886	1
0	13297	3295.85276326147	0
0	13311	3296.944558399291	1
0	13312	3297.035094505533	0
0	13331	3302.021320462618	1
0	13335	3303.436465072836	2
0	13341	3309.070818980119	3
0	13343	3311.656228463403	4
0	13344	3313.732585387279	3
0	13351	3313.911025798938	4
0	13352	3314.071309362131	3
0	13358	3314.953013568956	2
0	13363	3315.197162620405	1
0	13368	3315.214569770055	0
0	13401	3328.519265919158	1
0	13404	3330.090399179903	0
0	13415	3331.195314723008	1
0	13416	3331.264720671595	0
0	13422	3331.488210842656	1
0	13424	3331.692461220279	2
0	13428	3332.621347455574	1
0	13435	3332.805399283531	0
0	13482	3337.028534608138	1
0	13485	3338.181420974729	0
0	13491	3339.458453389986	1
0	13493	3341.298877645448	0
0	13500	3341.559269779648	1
0	13501	3341.797061387423	0
0	13515	3347.674496373302	1
0	13525	3353.340038216638	0
0	13532	3353.762532099971	1
0	13534	3354.423647916786	0
0	13540	3354.718429819076	1
0	13544	3354.909525151494	2
0	13545	3355.561416909005	1
0	13550	3356.506132188484	0
0	13561	3359.465644433223	1
0	13569	3363.672768476742	2
0	13575	3365.334907610544	3
0	13578	3369.240419540531	2
0	13583	3369.403002582505	1
0	13589	3369.736880826731	2
0	13590	3370.660342232848	1
0	13597	3371.900694281773	0
0	13628	3375.192177438463	1
0	13630	3375.452594606441	2
0	13633	3376.394412356391	1
0	13638	3376.651832276271	0
0	13666	3383.613432491617	1
0	13667	3384.378398045456	0
0	13679	3389.441655552622	1
0	13680	3389.708478293682	0
0	13697	3395.919715396761	1
0	13701	3396.575612271851	2
0	13704	3399.71884055298	1
0	13710	3400.09435938689	0
0	13736	3406.378690654624	1
0	13741	3410.401610495012	0
0	13775	3416.551089826342	1
0	13779	3418.10351008332	0
0	13785	3419.118789154189	1
0	13787	3421.027157283203	0
0	13801	3422.364340222261	1
0	13804	3424.825682715342	0
0	13826	3430.651407676884	1
0	13828	3430.772078372907	2
0	13832	3431.627406392206	1
0	13838	3432.919573086704	0
0	13844	3432.932768677685	1
0	13845	3432.992365281181	0
0	13852	3433.464847254539	1
0	13854	3434.01723546512	0
0	13860	3434.062516802002	1
0	13868	3435.520886556115	0
0	13875	3436.045220346888	1
0	13877	3436.929977265635	0
0	13899	3440.201822277108	1
0	13903	3441.82145739445	2
0	13905	3442.273855418167	3
0	13906	3442.740003588192	2
0	13912	3443.355079435674	1
0	13917	3443.787778519161	0
0	13933	3445.920314022051	1
0	13938	3448.791889217029	2
0	13939	3449.633119526622	1
0	13945	3449.770200931896	2
0	13948	3450.633343786701	3
0	13949	3450.749629757101	2
0	13955	3450.83970416924	3
0	13956	3452.131538113818	2
0	13962	3452.46197633979	1
0	13971	3453.942542520734	0
0	13977	3454.225776362116	1
0	13978	3454.905003789651	0
0	13990	3457.266115483548	1
0	13992	3457.457712224464	0
0	14008	3459.80624246952	1
0	14013	3463.452334119641	0
0	14019	3463.46759566102	1
0	14020	3464.011652531862	0
0	14024	3465.158980064438	1
0	14028	3467.502576366062	0
0	14039	3469.332543118647	1
0	14042	3470.284307009393	2
0	14048	3472.892893282734	1
0	14056	3474.275949030037	0
0	14083	3479.097910930703	1
0	14084	3479.394576308637	0
0	14094	3479.807627974347	1
0	14099	3480.477171906436	2
0	14101	3482.292993239661	1
0	14107	3482.619303577925	0
0	14171	3496.984957106024	1
0	14173	3497.051728463769	2
0	14174	3497.068910055358	1
0	14179	3497.456388977701	0
0	14188	3497.619351085972	1
0	14190	3497.749838020506	2
0	14193	3498.538491932052	1
0	14202	3499.974029319059	0
0	14226	3504.389369952228	1
0	14232	3506.986380514558	0
0	14269	3511.755259128909	1
0	14270	3512.255984657278	0
0	14287	3514.421274546198	1
0	14289	3515.307877912257	2
0	14290	3515.452259783508	1
0	14295	3515.952100791659	0
0	14316	3519.284078093066	1
0	14322	3521.30719365264	0
0	14329	3521.903763396616	1
0	14330	3522.722114432054	0
0	14336	3522.792083194196	1
0	14338	3524.054865490915	0
0	14350	3524.208689452043	1
0	14352	3524.228247336911	2
0	14353	3524.551652823307	1
0	14359	3525.628867868895	2
0	14362	3526.173733720532	1
0	14367	3526.20301556619	0
0	14371	3528.997115630807	1
0	14375	3529.629200036582	2
0	14377	3530.788867183002	1
0	14383	3532.065935612789	0
0	14394	3533.240291578879	1
0	14397	3533.723949455325	2
0	14399	3535.061121124861	3
0	14401	3536.782526596744	2
0	14411	3538.800677260028	1
0	14417	3539.037587160476	2
0	14418	3539.210027395414	1
0	14423	3539.451024348725	0
0	14465	3547.243648036742	1
0	14466	3547.84739845555	0
0	14473	3548.891818182278	1
0	14474	3549.421117221078	0
0	14488	3551.391866652099	1
0	14489	3551.94823500324	0
0	14501	3552.987932207882	1
0	14504	3554.54491157373	0
0	14541	3564.784535356283	1
0	14542	3568.310284966399	0
0	14582	3581.686700764739	1
0	14584	3582.151620877889	2
0	14586	3582.218879342492	3
0	14589	3582.654504991842	4
0	14590	3582.760221391364	3
0	14595	3584.166702862851	2
0	14600	3584.343864985544	1
0	14608	3584.899099797948	0
0	14614	3584.985222930455	1
0	14616	3585.344753786417	2
0	14620	3587.971165038626	1
0	14626	3588.394513607336	2
0	14627	3588.708617608868	1
0	14632	3589.343235854349	0
0	14638	3589.561361424631	1
0	14641	3589.887152217276	2
0	14643	3591.12736285303	3
0	14644	3591.873896266757	2
0	14650	3592.292301881583	3
0	14651	3592.341838888575	2
0	14655	3593.516566655403	3
0	14658	3595.522878281925	2
0	14663	3595.783360048991	1
0	14667	3600.364499767136	2
0	14669	3600.375146313265	3
0	14673	3600.721953234583	2
0	14678	3600.816190883026	1
0	14684	3603.00795342466	2
0	14688	3603.537308095496	3
0	14696	3608.131011495845	2
0	14702	3608.622959639181	3
0	14704	3608.629813147772	4
0	14705	3608.674788666033	3
0	14710	3608.685782316397	2
0	14715	3608.884495276075	1
0	14719	3609.62832961654	2
0	14721	3609.702652808325	3
0	14727	3613.307139236123	2
0	14732	3614.180955389413	1
0	14737	3614.594284830376	0
0	14748	3616.30336092352	1
0	14750	3617.302166275238	2
0	14752	3617.471867203531	1
0	14758	3617.780886764834	0
0	14762	3618.497976616502	1
0	14765	3618.616044229729	0
0	14782	3621.70356658663	1
0	14783	3622.096896085034	0
0	14797	3622.888859962324	1
0	14799	3624.95697294334	2
0	14802	3625.458000942887	1
0	14807	3626.692759309221	0
0	14822	3629.040917796429	1
0	14824	3629.299658593024	0
0	14833	3630.211858013763	1
0	14835	3630.377423589928	2
0	14839	3631.996448971359	1
0	14844	3632.192249962994	0
0	14886	3642.326039456349	1
0	14888	3642.936619140403	2
0	14893	3645.643816671631	1
0	14898	3645.781767019502	0
0	14909	3647.0703875295	1
0	14914	3649.793527748439	0
0	14945	3657.775591694855	1
0	14947	3657.908505511351	2
0	14949	3658.99447927714	3
0	14953	3663.266165716716	4
0	14955	3663.601700674027	5
0	14959	3664.368579471605	4
0	14967	3665.376323550029	5
0	14968	3667.480645992238	4
0	14973	3667.73253233051	3
0	14982	3668.448776749565	4
0	14986	3668.669998186819	5
0	14988	3669.308178099857	4
0	14994	3670.857758653863	3
0	14999	3671.064624183272	2
0	15004	3671.340704465039	1
0	15012	3676.358950387167	2
0	15013	3678.721050513222	1
0	15018	3682.983519867674	0
0	15063	3695.02266211688	1
0	15065	3695.419140964345	2
0	15067	3695.542874479481	3
0	15070	3696.078548230059	2
0	15077	3696.505255618494	1
0	15083	3696.641690444734	2
0	15086	3698.65533791804	3
0	15088	3699.297193740146	2
0	15095	3700.348755445561	3
0	15098	3700.491360198452	2
0	15104	3700.751868975906	3
0	15106	3701.406901362541	4
0	15107	3701.932603690917	3
0	15112	3702.392810657125	2
0	15117	3702.817776265019	1
0	15126	3705.180506665116	2
0	15130	3705.530476080084	1
0	15135	3706.319650328142	0
0	15141	3706.71984421743	1
0	15142	3707.741872585677	0
0	15158	3709.156499426746	1
0	15163	3710.45104331118	2
0	15166	3712.073548142166	1
0	15172	3712.43774291447	2
0	15173	3712.889926666821	1
0	15180	3714.22404230084	0
0	15191	3715.353591599234	1
0	15193	3716.446616404887	0
0	15206	3718.53874439243	1
0	15208	3719.481811474333	2
0	15209	3719.903468540496	1
0	15215	3721.043689686126	2
0	15216	3721.07767934147	1
0	15224	3721.613191979657	0
0	15239	3723.226469614749	1
0	15240	3723.283790093273	0
0	15260	3728.081519202713	1
0	15263	3730.552914581528	0
0	15277	3733.815384682857	1
0	15282	3734.837888974026	0
0	15323	3750.428944200402	1
0	15327	3751.443984940165	2
0	15328	3752.121279763973	1
0	15333	3752.198189426156	0
0	15346	3753.378786548318	1
0	15349	3753.69686160473	0
0	15356	3754.510228500507	1
0	15359	3756.264443790838	0
0	15365	3757.019203769306	1
0	15367	3758.535013310824	2
0	15369	3760.143176085709	1
0	15376	3762.016632803151	0
0	15398	3766.380461545577	1
0	15406	3768.088705612856	0
0	15426	3773.008967782233	1
0	15429	3773.563045691823	0
0	15467	3785.57482720926	1
0	15469	3785.969994122758	2
0	15470	3785.998067859165	1
0	15477	3786.889238239315	0
0	15506	3793.303167787755	1
0	15509	3794.961189923844	0
0	15561	3805.516958899971	1
0	15564	3808.223270970907	0
0	15570	3809.160031823566	1
0	15572	3809.869267630291	2
0	15573	3810.254365660277	1
0	15579	3810.495544969546	2
0	15583	3812.185583141967	3
0	15584	3813.866691462723	2
0	15590	3814.091845678585	3
0	15591	3814.928750620291	2
0	15603	3820.589098989274	3
0	15605	3821.39771039493	4
0	15606	3821.515148609898	3
0	15611	3822.134671718279	2
0	15616	3822.648671387263	1
0	15620	3823.466956667366	2
0	15622	3824.00534841694	3
0	15625	3824.743654961702	2
0	15629	3825.704600588807	3
0	15633	3826.332773273109	4
0	15637	3828.926154857532	5
0	15639	3830.375055963881	4
0	15644	3830.448586260818	3
0	15650	3830.739229270088	4
0	15653	3832.349584153275	3
0	15658	3833.202294998774	2
0	15662	3833.94498568087	3
0	15672	3839.185249340117	2
0	15677	3839.358858711599	1
0	15683	3839.626943504191	2
0	15687	3841.061674032751	3
0	15690	3842.566344213001	2
0	15698	3844.872770947144	1
0	15706	3847.480401787509	2
0	15707	3847.7172849203	1
0	15713	3850.053440828335	2
0	15714	3850.930572644971	1
0	15718	3851.288375246349	2
0	15720	3851.396530011262	3
0	15723	3852.31454620802	2
0	15729	3852.919936315768	3
0	15730	3853.134572531828	2
0	15736	3855.120204051316	3
0	15740	3857.952222658965	4
0	15742	3858.411591681088	5
0	15746	3859.81672558711	4
0	15751	3859.820916020773	3
0	15759	3861.637113758661	2
0	15764	3861.820011762454	1
0	15771	3863.898215406566	0
0	15795	3868.09611165541	1
0	15797	3868.531446512989	2
0	15799	3869.716170349901	3
0	15807	3877.222162147602	2
0	15812	3877.888300629257	1
0	15817	3877.943907009748	0
0	15828	3877.993018629991	1
0	15832	3879.788894147568	0
0	15868	3887.33588089021	1
0	15872	3888.690729670764	2
0	15874	3889.69298512109	3
0	15876	3890.808467378058	4
0	15878	3893.06467320337	5
0	15882	3893.23053325315	6
0	15883	3894.110015379202	5
0	15889	3894.427613910073	6
0	15890	3894.431430218495	5
0	15897	3894.676286725588	4
0	15902	3894.694086190292	3
0	15907	3896.372029167824	2
0	15913	3898.003212793635	1
0	15919	3898.681366794906	0
0	15935	3904.069746131075	1
0	15938	3904.404235595401	0
0	15947	3907.041371339599	1
0	15956	3908.556857722301	0
0	15962	3908.742587629297	1
0	15964	3909.264817628707	0
0	15983	3912.881705828688	1
0	15985	3913.024386495315	2
0	15988	3914.593812514664	1
0	15994	3915.317179927614	2
0	15997	3916.056150323869	3
0	16001	3917.019578786439	4
0	16002	3917.348007635127	3
0	16008	3917.39870989783	4
0	16010	3917.765134872711	5
0	16011	3919.132023493476	4
0	16017	3919.184191548981	5
0	16025	3922.831512430058	4
0	16032	3924.956353090602	3
0	16037	3925.963380575534	2
0	16044	3926.709564162528	3
0	16048	3927.667971137675	2
0	16053	3927.717842757453	1
0	16059	3928.261527813605	0
0	16074	3929.932326838985	1
0	16078	3931.203459855672	2
0	16079	3932.74803392581	1
0	16086	3933.716259550464	0
0	16108	3938.295724975735	1
0	16111	3942.595398778752	0
0	16135	3946.139682681426	1
0	16136	3949.3043203953	0
0	16149	3951.792770023534	1
0	16150	3951.87646642559	0
0	16188	3956.635759346805	1
0	16189	3957.588832549039	0
0	16195	3958.051276082146	1
0	16197	3958.060380046788	2
0	16198	3958.321819674816	1
0	16207	3959.727943214708	0
0	16214	3960.29569468495	1
0	16215	3962.023659292427	0
0	16235	3965.849880488306	1
0	16237	3966.245299874825	2
0	16239	3966.575021717741	3
0	16241	3967.057304841687	4
0	16247	3968.752752179221	3
0	16256	3969.431365711973	2
0	16265	3971.668303578589	1
0	16269	3972.034788998942	2
0	16273	3972.603020937589	3
0	16277	3972.867807613179	2
0	16282	3973.473149353893	1
0	16292	3975.80212138332	2
0	16295	3976.866554255251	1
0	16301	3977.745867050504	2
0	16308	3980.477751620717	1
0	16318	3981.775490006519	0
0	16341	3985.272536244927	1
0	16345	3986.431859076637	2
0	16348	3988.106229763275	1
0	16353	3988.285807552629	0
0	16394	3993.82014076855	1
0	16395	3994.175506896699	0
0	16420	4003.477618128554	1
0	16422	4003.614187795638	2
0	16423	4005.205944997725	1
0	16428	4005.477754887449	0
0	16435	4006.207170606092	1
0	16436	4006.412426649278	0
0	16462	4014.871904833655	1
0	16464	4016.167709094183	2
0	16469	4018.260240319416	1
0	16476	4019.287359947528	2
0	16477	4019.39118846414	1
0	16482	4019.49814409807	0
0	16491	4019.934603409818	1
0	16497	4024.266711244204	0
0	16504	4024.738559559957	1
0	16505	4024.762706566732	0
0	16511	4024.941387044564	1
0	16513	4025.645787256064	2
0	16514	4025.984149291049	1
0	16520	4026.825639315471	0
0	16526	4027.001956012592	1
0	16527	4027.062506673714	0
0	16538	4029.089095542807	1
0	16541	4030.330818443251	0
0	16552	4031.085713765541	1
0	16555	4033.382224180061	0
0	16566	4036.679107988665	1
0	16573	4041.711745128236	2
0	16576	4041.984642852227	3
0	16578	4044.450920296376	2
0	16584	4044.644809162116	3
0	16587	4044.936102191395	4
0	16588	4046.607364852322	3
0	16596	4047.604260911233	2
0	16602	4049.474339286455	1
0	16608	4050.075462401252	0
0	16632	4057.227208076854	1
0	16634	4057.86168188426	2
0	16635	4058.784393868845	1
0	16641	4059.655593921104	2
0	16642	4060.671042841822	1
0	16649	4061.252499082177	0
0	16656	4062.9301962632	1
0	16657	4063.161236018756	0
0	16666	4065.733952522501	1
0	16667	4065.741257032929	0
0	16699	4070.607514201895	1
0	16700	4071.872548149864	0
0	16740	4079.528238578318	1
0	16743	4079.974997151821	0
0	16797	4094.143287781381	1
0	16798	4096.163633286391	0
0	16805	4097.605949988519	1
0	16807	4097.926425832638	0
0	16823	4098.992526721503	1
0	16825	4099.741502067444	0
0	16835	4100.553975847936	1
0	16837	4101.20650563074	2
0	16838	4102.497826566439	1
0	16845	4103.504008288329	2
0	16846	4104.379230836344	1
0	16851	4104.694498958289	0
0	16867	4107.14409068694	1
0	16870	4108.888998976859	0
0	16876	4109.082191572334	1
0	16881	4109.450332747714	2
0	16884	4110.6620869826	1
0	16893	4113.58826329981	2
0	16894	4113.813575919923	1
0	16899	4114.176868552027	0
0	16905	4114.510856873086	1
0	16906	4116.400802580267	0
0	16932	4118.122655163689	1
0	16933	4118.263823497867	0
0	16952	4123.995234115598	1
0	16956	4126.01238305295	2
0	16957	4127.006373428781	1
0	16963	4127.802703179599	0
0	16979	4129.614006946617	1
0	16985	4132.138982865276	2
0	16986	4132.4023995371	1
0	16992	4133.308143403578	0
0	17009	4137.114215340156	1
0	17015	4140.410320887025	0
0	17050	4146.349264374969	1
0	17052	4147.18784924091	2
0	17054	4147.760650045474	3
0	17058	4148.042606942987	4
0	17059	4148.444298615794	3
0	17065	4148.821971388292	2
0	17072	4149.707377522854	3
0	17074	4150.136643335516	4
0	17075	4151.225222505646	3
0	17080	4151.387058607674	2
0	17088	4152.385794502573	1
0	17093	4152.437759668516	0
0	17102	4153.642675065082	1
0	17105	4154.460639425243	0
0	17112	4155.114312561975	1
0	17113	4155.159294456816	0
0	17133	4157.812905969985	1
0	17136	4160.119815281093	0
0	17146	4162.363002944348	1
0	17152	4165.47225754608	2
0	17154	4165.626851226003	3
0	17155	4166.878593040693	2
0	17160	4167.341363846204	1
0	17169	4168.051677292895	0
0	17176	4168.407114697821	1
0	17178	4169.928909385179	0
0	17190	4170.458985441101	1
0	17191	4171.002733655176	0
0	17213	4173.790685351309	1
0	17214	4174.638036298939	0
0	17220	4174.850841335776	1
0	17221	4175.397038918971	0
0	17240	4179.511807081486	1
0	17241	4179.653184730737	0
0	17271	4185.435168967772	1
0	17276	4188.881258891641	0
0	17299	4192.206734065976	1
0	17301	4192.323251154545	2
0	17303	4193.570726640827	3
0	17308	4196.953513970649	2
0	17315	4198.321537928362	3
0	17316	4198.696348125471	2
0	17322	4198.870764524724	1
0	17329	4199.771579820949	0
0	17354	4205.630552059148	1
0	17356	4207.124176439383	2
0	17357	4207.430588539718	1
0	17364	4207.685980812823	2
0	17368	4208.760671939144	3
0	17369	4209.06033502207	2
0	17376	4209.947921519092	1
0	17382	4210.082072193373	2
0	17383	4210.152286690069	1
0	17392	4211.410828174395	2
0	17393	4212.730323288223	1
0	17398	4214.602095539194	0
0	17409	4215.423001129001	1
0	17410	4215.5578856016	0
0	17414	4215.888861829253	1
0	17416	4216.583781512044	2
0	17421	4218.884103577419	3
0	17423	4218.992493161093	4
0	17425	4219.33413142102	5
0	17427	4219.812743614672	6
0	17428	4220.701673180918	5
0	17435	4221.324796105873	4
0	17441	4221.471607890994	3
0	17450	4223.01610216067	2
0	17456	4223.170058092072	1
0	17464	4225.849833477092	2
0	17466	4227.949580597576	3
0	17468	4228.629482699859	4
0	17469	4228.927214449634	3
0	17474	4230.268414010836	2
0	17479	4230.352166824768	1
0	17484	4232.167517564897	0
0	17488	4232.370589082065	1
0	17491	4232.80529506528	0
0	17499	4235.020233924141	1
0	17501	4236.219105495111	2
0	17503	4236.34819856631	3
0	17505	4237.054439738305	4
0	17506	4237.263283459459	3
0	17511	4239.050845812216	2
0	17515	4239.575309970517	3
0	17519	4240.484546028723	4
0	17520	4242.130700386611	3
0	17524	4242.915826158549	4
0	17528	4244.769059981637	5
0	17530	4245.020139462077	6
0	17531	4245.172794949373	5
0	17535	4245.452418277141	6
0	17538	4246.677745491451	5
0	17548	4250.395211000833	6
0	17550	4251.114474999772	5
0	17555	4251.122189092095	4
0	17561	4251.342707943066	5
0	17562	4251.535487365628	4
0	17567	4251.648872751804	3
0	17573	4254.483295295121	2
0	17580	4254.945916860142	3
0	17584	4255.624587273026	2
0	17592	4258.111617972787	3
0	17593	4259.343916420546	2
0	17598	4259.464902974382	1
0	17603	4260.862316155006	0
0	17635	4266.16382513022	1
0	17637	4266.76093968945	2
0	17640	4268.382655557135	1
0	17649	4269.574294330758	0
0	17661	4273.765126132959	1
0	17663	4274.467353807268	2
0	17665	4274.699205902325	3
0	17666	4276.120820061782	2
0	17673	4276.184726844388	3
0	17676	4276.94712794244	2
0	17681	4277.151827303939	1
0	17687	4278.072544841403	2
0	17690	4278.377426603602	1
0	17696	4281.124771384588	2
0	17698	4281.953038805219	1
0	17704	4282.35102592491	2
0	17706	4283.175993682745	3
0	17709	4285.033589510061	2
0	17714	4286.45915026168	1
0	17719	4287.739585193676	0
0	17746	4295.651607600003	1
0	17747	4296.895745634348	0
0	17759	4297.715548710225	1
0	17760	4298.883720133482	0
0	17770	4301.628224863964	1
0	17773	4302.757127012083	0
0	17779	4303.065800652677	1
0	17785	4307.304677052789	0
0	17798	4310.561414755764	1
0	17799	4310.807987160389	0
0	17818	4313.601374030271	1
0	17820	4314.452992644628	2
0	17823	4315.274205003229	1
0	17829	4315.965271554448	0
0	17839	4318.209707582177	1
0	17844	4320.0004865877	2
0	17847	4321.233024001778	3
0	17849	4321.409461783423	4
0	17852	4322.998430831084	3
0	17861	4324.843745418863	2
0	17866	4325.077478756668	1
0	17871	4325.344987427997	0
0	17882	4326.535730907901	1
0	17885	4327.878124885517	0
0	17889	4328.139612453934	1
0	17896	4329.991844700733	2
0	17897	4330.36506754738	1
0	17907	4333.623720417383	0
0	17944	4340.827280564557	1
0	17946	4341.277240629178	0
0	17954	4341.558436559169	1
0	17955	4341.63838928925	0
0	17963	4342.196713531709	1
0	17964	4342.265165420422	0
0	18013	4355.144356863226	1
0	18015	4356.994667487775	2
0	18017	4357.216626984337	3
0	18021	4359.487785891735	4
0	18022	4359.721525059036	3
0	18027	4359.958029215853	2
0	18033	4360.462707092675	3
0	18039	4362.805338044054	4
0	18040	4363.108689803739	3
0	18046	4363.184317652547	4
0	18048	4363.202943172138	3
0	18053	4363.215295448399	2
0	18060	4364.900903667323	1
0	18065	4365.444681820446	0
0	18071	4366.299290607066	1
0	18075	4367.546287890597	0
0	18107	4378.719641916759	1
0	18109	4382.276142115664	2
0	18113	4382.446251195549	3
0	18114	4382.523540098243	2
0	18119	4384.000542951746	1
0	18124	4384.647592543297	0
0	18132	4387.764104073034	1
0	18139	4389.798024905999	2
0	18141	4390.118078555487	3
0	18142	4390.431880312801	2
0	18148	4390.493392375486	3
0	18149	4393.76562370868	2
0	18156	4396.179863157939	1
0	18162	4396.520512499964	0
0	18180	4398.539481955336	1
0	18181	4399.904087327063	0
0	18252	4427.82541868136	1
0	18253	4428.358498185766	0
0	18267	4430.569835401293	1
0	18268	4431.140910956678	0
0	18276	4431.928727654169	1
0	18277	4431.933603699129	0
0	18299	4441.412829507396	1
0	18302	4442.327293063922	0
0	18313	4442.369763547021	1
0	18314	4442.677020102592	0
0	18331	4446.45135801985	1
0	18332	4447.430562391706	0
0	18358	4457.133889065818	1
0	18361	4458.629203476524	0
0	18387	4463.094873361578	1
0	18388	4463.54999594472	0
0	18420	4474.857749011217	1
0	18423	4476.128862086158	0
0	18452	4484.273103101468	1
0	18453	4484.531742126956	0
0	18479	4492.052331174045	1
0	18481	4492.97664193718	2
0	18484	4497.493034800546	1
0	18491	4498.778994807446	0
0	18523	4513.667474143521	1
0	18525	4513.914665353942	2
0	18528	4514.466327918572	1
0	18533	4514.577662470169	0
0	18539	4515.052627501712	1
0	18541	4515.227359985189	2
0	18542	4515.239139815268	1
0	18548	4515.368712451507	2
0	18550	4515.899817687011	1
0	18556	4515.9109598391	2
0	18557	4516.268878587277	1
0	18564	4519.34106021661	0
0	18571	4521.589300022187	1
0	18574	4521.915988604015	0
0	18588	4526.257828241133	1
0	18590	4526.328379296757	2
0	18593	4526.639218134983	1
0	18599	4526.788918977538	2
0	18600	4526.888063102181	1
0	18605	4527.113168370149	0
0	18612	4527.735939487374	1
0	18613	4528.005211034578	0
0	18661	4535.80589666819	1
0	18662	4535.920854562487	0
0	18671	4538.561187783094	1
0	18675	4541.283185658701	2
0	18676	4542.825768122962	1
0	18682	4542.858193864757	2
0	18685	4545.877527666709	1
0	18690	4545.946665598088	0
0	18696	4546.108756327293	1
0	18698	4546.317681845236	2
0	18701	4548.055676154592	3
0	18705	4550.907257365888	2
0	18711	4551.119924157287	1
0	18717	4552.098821601385	0
0	18761	4564.517334479046	1
0	18765	4565.765224823162	0
0	18777	4568.180818380192	1
0	18779	4568.673372052521	2
0	18782	4569.894502376857	1
0	18789	4572.185753543496	0
0	18890	4604.29616046465	1
0	18892	4604.364551173034	2
0	18893	4605.191754125987	1
0	18902	4606.880036412436	2
0	18903	4606.926654866529	1
0	18908	4606.955043539572	0
0	19007	4626.540234849128	1
0	19009	4628.737960123844	2
0	19014	4629.666739500446	1
0	19020	4629.943738171767	0
0	19026	4630.281033907498	1
0	19030	4630.617556544547	2
0	19031	4630.697810833302	1
0	19036	4630.84833652034	0
0	19053	4634.283210519816	1
0	19057	4636.977840407279	2
0	19058	4637.151102926389	1
0	19064	4638.344724576765	0
0	19070	4638.818337258664	1
0	19074	4639.748508070776	0
0	19081	4641.441846241528	1
0	19088	4643.35747271242	2
0	19089	4643.427030325214	1
0	19099	4644.364394709731	0
0	19105	4644.651884682792	1
0	19106	4646.173211884257	0
0	19119	4647.063802177011	1
0	19121	4647.395120199592	0
0	19173	4664.939342217088	1
0	19176	4666.088844035208	2
0	19177	4667.151823589631	1
0	19182	4669.015352328333	0
0	19222	4678.114196409261	1
0	19224	4678.413013428271	2
0	19225	4678.842661215059	1
0	19232	4679.711740121791	0
0	19269	4690.489538802855	1
0	19271	4690.600994159503	2
0	19272	4690.659495142121	1
0	19279	4691.81796536397	2
0	19281	4692.06145850389	3
0	19282	4692.534186063615	2
0	19287	4692.739481440327	1
0	19294	4693.328240629124	0
0	19380	4725.094585843737	1
0	19381	4725.9626302545	0
0	19405	4734.823411854402	1
0	19409	4735.53462628243	0
0	19415	4735.879394760446	1
0	19418	4736.563911905398	2
0	19420	4737.366851843538	1
0	19426	4737.756376273101	0
0	19441	4739.779549142771	1
0	19444	4740.433744203682	0
0	19470	4743.462174455956	1
0	19471	4744.773298336956	0
0	19477	4744.88056420147	1
0	19479	4747.86406716497	0
0	19497	4750.817843314776	1
0	19498	4750.862634499875	0
0	19507	4753.192859089301	1
0	19509	4756.641474910027	2
0	19511	4757.111679810083	3
0	19513	4757.369965228289	4
0	19515	4758.911991966776	5
0	19516	4761.19866688338	4
0	19524	4763.036275805889	3
0	19538	4766.859015094577	2
0	19544	4767.759507113429	1
0	19551	4768.822275526213	0
0	19566	4772.245603383872	1
0	19570	4772.874333497276	2
0	19572	4773.729267844262	1
0	19578	4773.96336356594	0
0	19584	4774.50602327789	1
0	19586	4774.652283353667	0
0	19619	4780.994213643817	1
0	19620	4781.243618552037	0
0	19627	4781.410961545063	1
0	19628	4782.204179565531	0
0	19643	4784.470689424823	1
0	19646	4786.260509367243	0
0	19658	4787.642190588142	1
0	19663	4789.897062603316	2
0	19664	4791.051832350195	1
0	19672	4793.870545054651	2
0	19673	4794.010612296394	1
0	19680	4795.755847734734	0
0	19702	4799.030248960621	1
0	19706	4803.037186222089	0
0	19713	4804.653451234805	1
0	19714	4805.808217297556	0
0	19747	4809.41583543604	1
0	19749	4809.854818385297	0
0	19763	4812.821389680061	1
0	19765	4813.240520908072	0
0	19771	4813.411510052032	1
0	19774	4814.975298468994	2
0	19776	4816.866901634747	1
0	19781	4818.024148156179	0
0	19787	4818.871506104984	1
0	19789	4818.934166960139	2
0	19791	4819.028745127451	3
0	19793	4819.379904467318	4
0	19795	4822.948920324191	3
0	19801	4823.074701927169	4
0	19802	4823.091698972934	3
0	19817	4828.555424814534	4
0	19820	4829.642151440872	3
0	19827	4831.130973387028	2
0	19832	4831.69631239071	1
0	19839	4832.11638752435	2
0	19841	4832.434446402941	1
0	19848	4832.577492765253	0
0	19854	4832.825675919138	1
0	19856	4833.153646589211	0
0	19862	4833.243383227528	1
0	19863	4833.38770510355	0
0	19896	4840.57920833684	1
0	19900	4841.886320798512	0
0	19911	4842.655530109837	1
0	19914	4843.647410212183	0
0	19930	4845.167796108194	1
0	19932	4845.832084766439	2
0	19936	4848.687155290714	3
0	19937	4848.741956494647	2
0	19944	4849.049889193537	1
0	19948	4849.703706181302	2
0	19952	4850.372567048617	1
0	19957	4850.394995440958	0
0	19968	4851.991415627622	1
0	19971	4857.220839314613	0
0	19992	4863.225884314224	1
0	19993	4864.742500341419	0
0	20020	4866.782334029495	1
0	20024	4867.928862382504	2
0	20026	4868.065939462912	3
0	20027	4869.091001332371	2
0	20032	4869.192373198447	1
0	20038	4870.119349188033	0
0	20048	4871.868664398314	1
0	20050	4872.257976994345	2
0	20054	4873.452001247817	3
0	20055	4873.503486145989	2
0	20060	4873.823687440158	1
0	20065	4874.185416717958	0
0	20074	4875.598525849405	1
0	20077	4876.430143070345	0
0	20111	4883.748148779079	1
0	20115	4884.909327058132	0
0	20133	4887.102872964198	1
0	20136	4888.011556619032	2
0	20137	4888.24062464283	1
0	20144	4889.11371319277	2
0	20147	4889.540120917652	3
0	20148	4889.666820189139	2
0	20153	4889.699320091195	1
0	20159	4890.272035616898	0
0	20229	4903.46105093775	1
0	20231	4903.798725114212	2
0	20233	4904.27870637061	1
0	20239	4904.65794401133	0
0	20264	4912.425816330671	1
0	20267	4912.819238137172	0
0	20298	4920.249428531224	1
0	20301	4920.876267405587	0
0	20323	4923.638094744507	1
0	20326	4924.514809393858	2
0	20327	4924.68338264157	1
0	20334	4926.693647259843	0
0	20357	4932.435536826152	1
0	20359	4932.959576846252	2
0	20365	4935.282172065183	3
0	20366	4936.11983264939	2
0	20373	4937.192086918706	1
0	20378	4937.48688566219	0
0	20470	4955.401575998869	1
0	20471	4955.859653402876	0
0	20479	4956.086153243788	1
0	20480	4956.265185525242	0
0	20549	4983.956215612667	1
0	20550	4984.125081141969	0
0	20574	4990.477123655782	1
0	20577	4991.460193830845	2
0	20580	4994.076639960406	1
0	20586	4994.419237644721	2
0	20590	4996.120708851309	1
0	20596	4996.484278506758	2
0	20598	4996.833006408301	1
0	20604	4997.268814759824	0
0	20629	5002.116835959604	1
0	20632	5003.828926420519	0
0	20657	5006.83759849234	1
0	20660	5008.365031959149	0
0	20708	5019.827709853007	1
0	20710	5020.294851870031	0
0	20730	5023.944861829735	1
0	20731	5024.035194291409	0
0	20748	5025.953096681594	1
0	20750	5026.153818852662	0
0	20788	5041.178507220003	1
0	20791	5041.83116737284	0
0	20797	5042.019161959559	1
0	20804	5043.821990408483	0
0	20828	5048.881375548089	1
0	20829	5048.950871140624	0
0	20840	5049.783027004439	1
0	20845	5052.966076465558	2
0	20847	5053.163083181978	3
0	20848	5055.130771934561	2
0	20853	5055.287209343349	1
0	20859	5055.835348695225	0
0	20865	5056.629130475355	1
0	20868	5057.039604240508	0
0	20879	5059.122574986002	1
0	20881	5059.839412827123	0
0	20927	5066.224638044837	1
0	20929	5066.716150317917	2
0	20931	5067.385459366704	3
0	20932	5067.594094267047	2
0	20939	5070.269741490756	1
0	20944	5071.431908109062	0
0	21003	5085.31475568656	1
0	21005	5087.752119746888	0
0	21028	5095.157637919828	1
0	21030	5095.764732601232	2
0	21033	5096.725202546065	1
0	21040	5097.247956998757	0
0	21061	5101.633174305175	1
0	21064	5102.623295600877	0
0	21099	5111.596729513332	1
0	21101	5111.959118016274	2
0	21106	5116.266729431733	1
0	21111	5116.281769775788	0
0	21127	5120.054503317229	1
0	21128	5120.952939267036	0
0	21159	5127.891350190819	1
0	21163	5129.258803913533	2
0	21164	5129.901940184937	1
0	21171	5130.67412087479	2
0	21176	5133.655227363012	1
0	21182	5133.693573546398	2
0	21183	5133.727287958267	1
0	21193	5134.36067970082	2
0	21198	5135.533790782103	3
0	21199	5135.754690835556	2
0	21204	5135.860768833974	1
0	21209	5135.931742076039	0
0	21220	5136.575021714068	1
0	21221	5137.437755594886	0
0	21233	5140.234446245957	1
0	21236	5140.727862954882	0
0	21246	5142.518635504367	1
0	21250	5143.882843918986	2
0	21255	5145.215681405663	3
0	21256	5145.568430693983	2
0	21261	5145.648026328192	1
0	21270	5148.913849363282	2
0	21271	5149.04357410039	1
0	21276	5149.147086858527	0
0	21300	5152.158536169148	1
0	21302	5154.258616269131	2
0	21304	5155.483959156919	3
0	21305	5155.716151959317	2
0	21310	5156.212434893811	1
0	21316	5157.071407820228	0
0	21322	5157.357302180247	1
0	21325	5158.378520349956	0
0	21331	5158.932730652414	1
0	21332	5160.504210173287	0
0	21383	5174.024749500966	1
0	21386	5174.500552399506	0
0	21417	5178.898735846613	1
0	21421	5180.044727948593	0
0	21433	5181.820174437485	1
0	21435	5181.821439474683	2
0	21436	5182.332986144609	1
0	21444	5184.406397229146	2
0	21446	5185.717456384728	3
0	21448	5186.229068513016	4
0	21450	5187.508884331444	3
0	21456	5187.811505758978	2
0	21461	5188.102853985346	1
0	21466	5188.244266718371	0
0	21479	5188.85009373789	1
0	21482	5189.405104725564	0
0	21489	5192.985286453711	1
0	21490	5193.315755377099	0
0	21506	5197.173381370317	1
0	21513	5200.631790065018	2
0	21514	5200.927931971414	1
0	21520	5201.084412387343	2
0	21521	5201.944173662378	1
0	21534	5204.296494086288	2
0	21535	5204.583517265631	1
0	21540	5205.193322796269	0
0	21554	5206.532713221778	1
0	21555	5207.020870665404	0
0	21567	5208.313791088695	1
0	21570	5210.246170971606	0
0	21594	5214.226819538361	1
0	21595	5214.732054888091	0
0	21607	5215.594026213307	1
0	21608	5216.856869233321	0
0	21615	5217.529324852838	1
0	21617	5217.575808596562	2
0	21618	5217.984519148508	1
0	21624	5219.384897415591	0
0	21630	5219.544530280838	1
0	21634	5220.444542714534	2
0	21635	5220.696139325447	1
0	21644	5222.562128552821	0
0	21656	5223.139997569149	1
0	21658	5226.043935255118	2
0	21661	5226.69255946374	1
0	21666	5226.892029728259	0
0	21672	5227.454517399355	1
0	21677	5229.606990721419	0
0	21716	5236.868330063261	1
0	21717	5236.944865302527	0
0	21723	5237.218795106893	1
0	21727	5238.441143391922	0
0	21736	5239.150968099588	1
0	21740	5239.839888530188	2
0	21742	5239.84527627633	1
0	21747	5240.036647488229	0
0	21753	5240.05672939152	1
0	21755	5240.869998090394	2
0	21756	5241.351901903119	1
0	21762	5241.921257778007	0
0	21766	5242.24310149043	1
0	21772	5245.911282804902	2
0	21778	5246.849112025512	1
0	21782	5248.338282275161	2
0	21785	5248.908597972747	1
0	21789	5250.143574873157	2
0	21793	5251.353846618135	1
0	21800	5252.891190353822	0
0	21806	5252.948435123765	1
0	21810	5253.964775990619	2
0	21813	5255.632352790713	3
0	21814	5256.007529527844	2
0	21819	5256.035876806543	1
0	21825	5256.122173272926	2
0	21826	5256.219658947505	1
0	21832	5257.100162453047	0
0	21852	5260.226989566089	1
0	21854	5260.278406020615	2
0	21855	5260.33651805582	1
0	21863	5260.935001908735	2
0	21865	5261.423923175864	3
0	21866	5262.038289185097	2
0	21872	5262.74237603806	1
0	21880	5264.726438558401	2
0	21882	5266.502179116093	3
0	21885	5269.043682042086	2
0	21891	5269.074581827744	3
0	21893	5269.358429429697	4
0	21894	5269.962623791652	3
0	21901	5270.416135156831	4
0	21905	5273.449986649011	5
0	21908	5274.533252297156	4
0	21913	5274.602995540921	3
0	21921	5275.644180165375	2
0	21926	5276.343562951362	1
0	21933	5277.650290034718	0
0	21939	5279.410593221605	1
0	21940	5281.127715342494	0
0	21958	5286.485844036063	1
0	21961	5287.652554980563	2
0	21962	5290.035442196444	1
0	21968	5290.055379196284	2
0	21969	5290.293961324314	1
0	21977	5291.839056705697	2
0	21979	5293.540567987468	1
0	21984	5293.992990970462	0
0	22018	5299.932687006903	1
0	22022	5302.549801460513	2
0	22023	5302.903910106045	1
0	22031	5305.127114829059	0
0	22042	5306.835100045069	1
0	22044	5307.669690981007	2
0	22046	5308.322477955116	3
0	22048	5308.785218145321	4
0	22052	5310.229820616259	5
0	22054	5311.977126545987	4
0	22063	5315.203622738513	3
0	22071	5316.341905281941	2
0	22077	5316.54868348994	3
0	22079	5318.399826869388	2
0	22086	5319.988738997994	3
0	22087	5321.784330684294	2
0	22093	5322.614828853418	1
0	22099	5323.047504271898	2
0	22102	5323.897623714202	3
0	22103	5324.524738220335	2
0	22108	5325.691009861344	1
0	22113	5326.18937165027	0
0	22126	5328.113488166274	1
0	22130	5330.524744129385	0
0	22136	5330.601372106599	1
0	22138	5331.023898843277	0
0	22195	5349.242864901033	1
0	22197	5350.127563197384	2
0	22198	5351.999214158247	1
0	22203	5352.164338932087	0
0	22227	5359.462689188779	1
0	22228	5359.740494814202	0
0	22240	5361.902018380928	1
0	22241	5363.526991961833	0
0	22253	5365.302553425499	1
0	22256	5365.646670991961	0
0	22279	5372.378731871967	1
0	22284	5374.774493590211	0
0	22312	5383.125569230635	1
0	22313	5386.168673590357	0
0	22325	5387.21757191289	1
0	22327	5387.569252233656	0
0	22333	5387.647460595871	1
0	22334	5388.753526444648	0
0	22382	5396.432885039581	1
0	22383	5397.69332703513	0
0	22394	5398.044674588789	1
0	22395	5398.055227237341	0
0	22474	5416.028116888061	1
0	22476	5416.114334938676	2
0	22477	5416.559212309398	1
0	22483	5417.027862028862	0
0	22507	5421.524413581436	1
0	22508	5422.758179925242	0
0	22550	5440.304184674537	1
0	22553	5443.179479513855	0
0	22578	5445.314604278611	1
0	22580	5445.817684014697	2
0	22581	5446.171042013324	1
0	22586	5447.622333663912	0
0	22615	5451.691631562087	1
0	22617	5452.650529016977	0
0	22650	5457.836991153455	1
0	22651	5458.701854002649	0
0	22657	5458.838475820448	1
0	22660	5459.387028394277	0
0	22706	5470.684006525183	1
0	22708	5470.982197181372	2
0	22710	5473.158936620581	3
0	22711	5473.178823275072	2
0	22717	5474.265981692814	1
0	22726	5475.578416571965	0
[...]
5	115627	27682.960997201213	9.057211231783
5	115637	27685.729096284023	10.670377591479
5	115646	27686.743770910736	10.355163923786
5	115674	27692.514773726203	14.35110636665
5	115716	27699.021168623836	20.417115393936
5	115728	27699.552797430881	20.285958122996
5	115734	27700.284797508825	10.950420456562
5	115738	27700.380992038549	5.300906796024
5	115754	27703.88556748575	0.341675599993
5	115768	27713.960478716183	5.916882474153
5	115801	27717.9762149826	7.614982169515
5	115806	27719.222620254324	4.415551043817
5	115813	27721.079960553156	6.215232891312
5	115825	27723.35309227668	6.925543286043
5	115849	27728.606839659666	0.717122598272
5	115863	27729.703594186902	1.023415486343
5	115899	27737.007200201434	0.148162349463
5	115916	27745.430848173892	6.326655059158
5	115934	27748.009499900316	4.883112144311
5	115938	27748.689784663853	4.948401386999
5	115958	27757.507733060659	7.12053762995
5	115977	27761.861973554865	3.871100591414
5	115987	27766.013819770062	2.65022463471
5	115994	27767.72027568157	3.350775513672
5	116009	27772.941289748274	4.682259418484
5	116016	27775.333167903607	4.022107669181
5	116043	27783.306998278477	4.064975604325
5	116079	27788.271241083368	3.560442965233
5	116088	27788.453204645334	2.069422276281
5	116106	27793.816335683691	4.607283172343
5	116128	27798.570298845401	7.563674182335
5	116175	27806.589572660332	7.881422119533
5	116179	27807.923381731786	6.657079502993
5	116205	27817.042194274321	5.113182146965
5	116225	27818.732270393854	0.381536098869
5	116285	27837.198649847528	15.914542057702
5	116294	27839.291230861734	14.530146994433
5	116319	27843.918635210993	13.082175733979
5	116323	27844.331043046287	7.733476767337
5	116340	27849.53127107755	3.093072965311
5	116358	27856.366758571163	6.701458803061
5	116394	27862.167047486469	10.473315073614
5	116404	27864.576245782664	6.411830531671
5	116412	27865.979508754383	0.02624302403
5	116449	27876.770612611391	2.706766705533
5	116472	27880.807234785018	6.726244772204
5	116481	27881.838773518554	7.614086667254
5	116512	27888.611664098591	3.106193311689
5	116522	27891.729331286761	4.626006123812
5	116561	27910.773506624037	3.915270036705
5	116573	27916.290592720425	4.330367909786
5	116609	27922.190674048072	1.09897630031
5	116617	27924.228162771788	0.013082157521
5	116629	27927.051101219017	0.359384433847
5	116690	27942.849100738227	4.077494853284
5	116729	27952.538772722189	0.100249881171
5	116753	27959.929250350068	0.866742947641
5	116814	27981.796745019016	8.182519500641
5	116819	27985.036807147042	9.606691484692
5	116823	27985.520331094345	5.905548864595
5	116833	27988.335322291304	0.668597615879
5	116840	27989.652187048584	1.42988940822
5	116926	28005.957503564909	0.204718452439
5	116957	28014.617232588921	2.975491838095
5	116972	28016.220944445293	0.070572490878
5	116987	28018.255631815318	0.736761098081
5	117008	28023.96095712038	4.141918384018
5	117013	28024.254415423422	2.485203025714
5	117023	28026.980493467806	4.73202662926
5	117069	28039.977806838631	0.296476389934
5	117081	28043.583438981114	3.892398267391
5	117091	28045.93068683653	4.099758561414
5	117117	28055.158299266007	3.100534008744
5	117121	28056.814232912738	4.676477233956
5	117132	28058.929891325247	1.461191511627
5	117156	28063.367574660555	2.240605691339
5	117168	28064.392901503081	0.888130961329
5	117193	28069.062854251017	3.235531657029
5	117249	28093.406324226924	0.660160513392
5	117265	28098.321490806651	0.23031060896
5	117276	28105.735192551743	5.110618901258
5	117280	28107.605583199778	3.149551793369
5	117318	28114.546406066786	3.260508694017
5	117327	28115.330221425089	2.895321994491
5	117341	28116.535080894737	0.02918597468
5	117386	28132.749861457864	3.071311158802
5	117402	28135.173875369453	1.520451691231
5	117439	28142.083728868036	1.030193973353
5	117446	28143.319616183443	0.24835030025
5	117485	28149.881350972025	5.820450700482
5	117490	28151.738412709553	5.337931711923
5	117498	28152.858498657407	5.137304493484
5	117528	28163.809656324448	1.45943385057
5	117535	28164.746103830006	0.657256380108
5	117576	28174.451013845589	0.830149786216
5	117606	28179.002681395131	1.435566828313
5	117618	28183.647987133948	1.18656097025
5	117633	28185.548733010156	0.22557883234
5	117645	28196.63309357361	1.724987859383
5	117674	28208.426727071671	3.524341553829
5	117701	28215.992091875788	5.59864156253
5	117840	28250.746262532853	16.359625023004
5	117846	28251.431513632744	12.85517400641
5	117850	28251.473353560823	1.986415297372
5	117866	28261.899507547039	0.07011706802
5	117887	28270.409854796923	5.759161089136
5	117994	28287.338857393614	10.348672900292
5	118003	28289.846364552382	3.062075405707
5	118012	28295.280758178439	5.507438284798
5	118022	28296.86270111926	0.186556038278
5	118030	28298.192469819605	0.065674211273
5	118038	28301.4928227583	0.676596588591
5	118054	28308.233766634502	3.820325768797
5	118064	28311.120283434168	2.580941117252
5	118077	28315.202085378189	4.019251432418
5	118095	28322.088633420652	2.03903246866
5	118118	28327.185008215329	2.881916069836
5	118155	28332.182756003793	6.937679323015
5	118177	28336.958292025922	10.412724568103
5	118183	28337.626895712564	9.034207778984
5	118190	28342.868098040927	9.137403443946
5	118210	28347.883129995169	12.582645158932
5	118214	28351.364987001148	5.696483798226
5	118229	28357.751108452419	4.093750108941
5	118247	28360.446806866098	5.40923250524
5	118254	28363.363633510824	7.594045220172
5	118299	28373.2150995158	1.26040606702
5	118332	28378.36494054825	5.19558525865
5	118374	28391.652178556182	11.785213433965
5	118443	28407.965759502316	27.459516640383
5	118449	28412.092607425393	29.721516015296
5	118464	28416.411023473477	33.493465342166
5	118495	28421.980485596527	30.855971296422
5	118508	28427.334255094046	28.803657252568
5	118541	28435.128384087548	34.126636975358
5	118559	28438.697100778007	26.493788859636
5	118624	28450.569150465382	37.662564851296
5	118697	28458.807856405872	40.831632258707
5	118757	28475.197263062679	56.275601232974
5	118821	28495.914773823236	75.811902027458
5	118828	28497.503635769147	75.807881815922
5	118834	28497.87882462899	74.778233493582
5	118841	28498.842187531055	75.351811966526
5	118846	28499.017605395626	69.332049850282
5	118853	28500.081407819421	69.064486581584
5	118882	28510.514761055246	69.214206349429
5	118890	28512.791784613782	69.014087317353
5	118895	28513.124111843787	62.487895046753
5	118906	28516.648974427658	62.473901090542
5	118934	28519.711029080772	64.883069824958
5	118946	28520.882917992	55.273192914879
5	118951	28522.071614916102	56.185393638657
5	118964	28525.704253049098	56.030184255486
5	118987	28527.253998604595	46.359072274519
5	118996	28531.402800435817	47.326015183052
5	119016	28536.752494800184	51.8852844947
5	119029	28540.049183558414	54.905577044065
5	119038	28543.81030365237	53.320229229533
5	119060	28548.528870886735	57.398456272804
5	119085	28552.492534829959	53.808148641224
5	119094	28553.908296875785	47.865611341283
5	119104	28554.050597214667	43.050404423281
5	119113	28555.796525124421	37.985924884003
5	119136	28562.331742146156	43.27663712002
5	119150	28567.997022697636	48.268158804761
5	119163	28569.927874335599	46.445550848273
5	119170	28571.404424229876	47.572287481154
5	119176	28571.528962892602	45.485798217954
5	119181	28571.698509058674	44.809454547964
5	119186	28572.178778417779	44.801104677952
5	119197	28577.051649969628	44.647191643152
5	119215	28579.307446088062	46.849949864931
5	119238	28581.664723652581	46.045025836089
5	119243	28582.153325258537	43.371420695056
5	119248	28582.318218703344	17.590292434233
5	119257	28585.288823966475	18.883490600733
5	119270	28587.563606090792	17.988976404349
5	119284	28593.69034236661	21.147642398223
5	119289	28595.884862151345	11.051181637188
5	119299	28599.019322024663	5.46598172421
5	119336	28604.365389097599	3.900884173742
5	119345	28605.628619737512	4.996554060247
5	119349	28606.013698000361	0.471954799265
5	119361	28611.638123596794	5.193739890397
5	119370	28613.905202657852	6.85875297167
5	119390	28617.474950671323	7.27002544333
5	119401	28621.25703188026	4.586190606054
5	119416	28627.004356136937	1.093454659919
5	119423	28629.763993441104	2.322092245958
5	119448	28634.515391529704	0.948105107701
5	119467	28637.577905697681	2.985308297157
5	119481	28642.481860178324	5.703247814377
5	119537	28657.708825813386	3.47320101039
5	119547	28658.932388452269	4.076506166326
5	119555	28659.344978225025	2.860775339811
5	119565	28661.296404302372	3.962069634367
5	119575	28662.542937257336	3.537210296644
5	119584	28665.228091421835	4.013906048975
5	119596	28666.830064360538	0.573782300077
5	119637	28680.687219437998	4.180503711551
5	119652	28686.800665974693	3.694057353561
5	119676	28691.362344432475	3.52710122324
5	119726	28700.161797158847	4.441295666639
5	119777	28711.19239430407	0.882548057811
5	119785	28712.158232759261	0.545296973071
5	119805	28718.353602708835	1.557408883287
5	119809	28719.199690853524	1.465385260031
5	119816	28721.845128802011	0.03587648484
5	119840	28731.720541590167	7.022455826244
5	119877	28745.956178336348	16.530162261603
5	119911	28749.816675970855	10.455393193912
5	119928	28754.292823158929	2.370762239507
5	119943	28756.180639251803	1.026807491621
5	119994	28770.005887369787	10.215051524878
5	120001	28770.888501098628	9.690925047471
5	120013	28775.394366503643	4.14962737411
5	120046	28786.447439798415	0.349147628575
5	120057	28794.155058520743	3.536031427984
5	120136	28817.268155218908	16.530950710564
5	120143	28819.915856234306	13.867844690512
5	120155	28822.781780814833	11.763207229834
5	120160	28823.113031595842	6.266660364696
5	120183	28826.557230041406	1.622716329928
5	120197	28830.648969818752	2.607183253344
5	120222	28837.080340390806	0.069158620985
5	120273	28848.801224742102	4.944391985132
5	120303	28859.267690421924	8.099955542851
5	120322	28860.859830520854	8.597576405967
5	120326	28861.170052490297	1.859989983689
5	120356	28872.215547118393	6.83331743277
5	120412	28885.358661521605	19.069742759892
5	120594	28923.226072918652	48.226516091329
5	120599	28923.300700712366	32.883570560639
5	120604	28923.876790010143	32.718814521636
5	120611	28924.373114821448	30.432846362836
5	120624	28929.852813756286	30.841848075403
5	120675	28941.474092619556	41.349387173448
5	120680	28941.515864769396	38.288995129508
5	120690	28944.854382177252	39.554089844961
5	120713	28954.216589189251	40.363699048607
5	121031	29022.424939297843	106.77774935368
5	121050	29027.550671421442	103.4707927398
5	121084	29033.467649313575	108.96208762815
5	121101	29038.096478556424	101.06150619614
5	121134	29047.84928507121	105.70486196902
5	121153	29052.543171069986	100.97751349118
5	121168	29054.366058290181	98.460753385627
5	121190	29061.430655276539	104.06113524098
5	121195	29063.735863392092	93.459648288418
5	121204	29065.562569410699	94.818957554166
5	121236	29070.452115319633	95.398507762369
5	121253	29072.805606565432	88.033484134557
5	121258	29073.070686189951	86.908703817696
5	121263	29073.333664914008	85.252429649443
5	121270	29075.646536001305	87.237365217259
5	121285	29081.062513620964	92.179887475335
5	121306	29083.725833097185	88.686342580478
5	121324	29090.65563600229	88.685088031511
5	121405	29111.706313813674	104.31695882156
5	121410	29111.720946705561	100.13146086845
5	121418	29112.997557520506	98.765716481191
5	121428	29114.078049932571	92.673494158225
5	121484	29123.461506660438	96.660572861663
5	121494	29125.078482461789	94.504691037075
5	121501	29125.895997572304	93.240753478251
5	121507	29126.837671300429	93.968722245117
5	121512	29127.292188538495	91.71276336191
5	121520	29131.597816427187	93.512193345275
5	121535	29132.738530950323	84.39813470892
5	121544	29135.880138914825	86.789841120528
5	121559	29140.731144463372	89.520994664922
5	121586	29147.531982520319	90.14238702661
5	121610	29151.384915541647	84.069653421256
5	121618	29153.433257249986	71.527988375172
5	121639	29157.492990940515	73.850984847414
5	121646	29158.618952430428	73.693310964007
5	121697	29167.323504539392	76.392545359792
5	121708	29170.931970401172	77.708432018147
5	121728	29179.45663866541	82.168553839212
5	121833	29198.188405077127	93.518523130645
5	121842	29198.768125887327	86.837002810317
5	121863	29206.679672323229	74.522496003703
5	121938	29221.732249926694	89.490847924221
5	121949	29224.346049848845	89.192692491812
5	121967	29227.024774602988	67.97950680778
5	121974	29228.887476124451	60.633274930287
5	122006	29237.454031190192	67.332503121855
5	122011	29237.508158727162	56.708123561908
5	122018	29239.801902541408	58.877392295286
5	122034	29243.386959497675	61.479945364534
5	122045	29244.730878220411	61.346386820503
5	122052	29247.582042277139	46.020584418091
5	122075	29254.604231006926	45.0901614411
5	122104	29260.172245095666	49.710797161089
5	122130	29261.8014706921	49.599989776456
5	122137	29265.687670069329	50.861682391432
5	122152	29273.647284060542	57.032602953599
5	122186	29289.594324211308	71.838890417962
5	122256	29297.742955236485	74.988788012626
5	122262	29298.544655175596	62.215101720102
5	122267	29298.733558044273	57.718329386009
5	122275	29302.771317988823	53.952362861973
5	122280	29303.10242156623	51.718969491248
5	122288	29304.451805104248	52.388026265899
5	122297	29305.584986275999	45.356281109761
5	122313	29307.950087418124	29.721965991102
5	122318	29309.247776427955	26.28305495126
5	122323	29310.297906486784	19.888629409054
5	122332	29311.79095273658	16.124505615647
5	122357	29317.561491853524	14.436050262396
5	122366	29320.255160000215	14.912767371297
5	122382	29322.385431340373	15.158973279957
5	122411	29329.476997935492	22.203328104351
5	122425	29334.35412689946	21.733502272093
5	122438	29335.144891347126	21.814450295578
5	122453	29337.751284567274	18.412392158243
5	122474	29340.563995565974	19.089658244034
5	122481	29343.269133853096	19.543242220556
5	122490	29345.566580262672	21.579169758235
5	122495	29346.657361557858	16.022439705188
5	122500	29347.429809648072	16.104718860263
5	122507	29351.177675031089	13.546956849978
5	122530	29355.841762682929	16.950721635717
5	122545	29357.585388558222	13.585991560822
5	122557	29360.257325550443	4.35666741032
5	122569	29362.770633840401	0.320996298889
5	122609	29373.067038126913	2.100045590797
5	122613	29373.417817792303	1.1867901356
5	122620	29378.040956421377	1.037150910537
5	122642	29380.905719593875	2.525149823062
5	122667	29388.703023040702	4.192616075238
5	122762	29418.412397063838	1.780407375196
5	122769	29419.262547650387	0.476129878452
5	122789	29429.504536376265	2.936906826835
5	122804	29432.524432328465	1.66765177502
5	122823	29440.36584297366	2.063837466054
5	122912	29462.406753496051	6.716058354997
5	122916	29462.618866251014	4.293006391326
5	122948	29477.627196995918	2.611061818932
5	123044	29502.033532053744	8.998715341242
5	123090	29509.024741649855	11.96282613933
5	123118	29514.982966969537	16.962389124955
5	123360	29568.493949757718	68.290219186237
5	123365	29568.525909460919	61.947721893486
5	123388	29573.763868824631	65.476884209324
5	123457	29585.010224411367	74.970440796386
5	123464	29586.529167950201	74.852335973754
5	123471	29587.11265385054	74.61481008843
5	123491	29592.460928775815	75.53031901641
5	123506	29594.392552451965	69.159768539206
5	123577	29608.899429845736	70.422947484003
5	123605	29612.452879394047	70.669542771278
5	123613	29613.920502888743	71.235015375123
5	123621	29614.925381990701	61.091109938015
5	123635	29618.230485833738	50.167726300755
5	123640	29618.808227935309	50.465883081404
5	123653	29630.597930385253	61.791231766469
5	123730	29645.941788792132	76.722785645242
5	123757	29648.58650207406	79.364468870916
5	123770	29650.049432941522	77.941870059955
5	123776	29650.71425992432	74.700074814784
5	123782	29653.323693337231	71.887954645577
5	123789	29654.822532518147	72.703016135336
5	123803	29656.422523135193	72.953306098329
5	123810	29658.598458132492	66.062108558047
5	123821	29659.030975194737	65.269284094163
5	123829	29663.546735657809	63.595416501035
5	123840	29665.109940156668	62.67134519053
5	123851	29665.549947659801	55.235337925954
5	123858	29666.26936862023	50.180622421167
5	123864	29670.299429957668	51.478435437677
5	123873	29672.820289533534	49.007068674256
5	123883	29673.964294178718	45.336185664276
5	123890	29675.6750431298	40.357553104244
5	123903	29677.957253340895	40.496373311561
5	123908	29678.974927048296	41.334257523749
5	123915	29683.639349583222	37.329425461012
5	123923	29684.857773078915	38.447404394855
5	123945	29687.773974981356	41.223012403386
5	123952	29689.333730441994	42.054991183868
5	123978	29695.067389723302	46.355845773536
5	124040	29705.924846285045	42.616868613002
5	124061	29708.823607657285	43.857072656592
5	124087	29712.462151456303	46.445597407246
5	124104	29714.936557069076	43.136565366866
5	124111	29716.651956764286	34.840268952467
5	124128	29721.240776263976	35.060881402261
5	124136	29722.772293914193	31.600652921077
5	124173	29730.681344950931	37.39466315227
5	124192	29735.562863965926	39.839044519271
5	124376	29780.296801470261	66.517050139615
5	124403	29783.10539451852	69.101078636997
5	124408	29783.24294024501	64.986146519908
5	124415	29786.436381435194	65.444329804377
5	124422	29787.334137345429	63.350156364496
5	124449	29792.411803175482	61.196563593563
5	124454	29792.949696944812	55.214563052317
5	124468	29796.49892273216	56.25235559642
5	124495	29800.182600701491	59.544185206506
5	124508	29801.701736460813	59.977174619744
5	124520	29802.844813739469	56.140410146286
5	124525	29803.88143354465	54.755497934566
5	124533	29806.258514349334	56.16292404929
5	124540	29806.820742783184	49.23425190185
5	124553	29811.280448799808	47.222508420472
5	124558	29812.680679331525	46.096410423738
5	124566	29815.162215044763	48.281004401488
5	124579	29816.480172487657	47.480420799982
5	124584	29818.658871238032	45.821449925959
5	124589	29820.246478079704	46.946778593033
5	124602	29823.305092402458	49.841423848318
5	124630	29827.384943467458	52.597641839541
5	124657	29830.60175856661	55.07452093237
5	124667	29832.241889565961	49.543658523553
5	124672	29833.163260849325	49.259111768496
5	124685	29836.658172792988	36.917850872429
5	124724	29847.120379823988	45.256211040108
5	124731	29848.648815139274	43.924776333286
5	124743	29852.200321360514	43.205750023142
5	124748	29855.358676949667	39.313593331755
5	124755	29858.778886812435	36.833014268064
5	124762	29865.620463535505	41.697313066541
5	124775	29866.733303848685	39.998294974175
5	124784	29869.472953405909	40.548731893624
5	124791	29872.693903621163	42.820236740191
5	124802	29875.235993952344	45.004262337923
5	124810	29877.395676437867	33.047890547507
5	124820	29878.525754821872	34.077435908054
5	124825	29878.818807562363	31.425337195275
5	124830	29880.149490979144	30.483475410119
5	124847	29887.518685915832	37.511398919234
5	124884	29897.394360212028	38.772764997729
5	124900	29899.100258965048	32.276284570768
5	124915	29906.591483619743	38.012091573752
5	124927	29909.75325385664	27.439396868243
5	124934	29912.153922123966	24.842666568192
5	124945	29918.901760157007	30.981426514623
5	124966	29923.406286988626	34.665282839132
5	124973	29926.646964229366	36.550428502679
5	124980	29928.435230222894	38.213742827445
5	124995	29933.076735657117	42.275494810673
5	125002	29935.827450842717	31.852968941892
5	125032	29947.791208233899	43.620615145637
5	125052	29950.398279891636	44.30982008909
5	125058	29950.615975586357	44.221141982483
5	125065	29952.193349030581	40.721155473729
5	125084	29954.945630659658	41.88519297475
5	125090	29955.749791055845	36.283687297209
5	125098	29956.180445600646	30.219899913381
5	125104	29957.474468625883	27.623957684372
5	125109	29959.941558118345	28.496228231924
5	125114	29961.358992543603	21.378184281421
5	125125	29964.558047197978	19.826846724094
5	125147	29970.206524869483	20.819958397261
5	125166	29975.251841444762	19.240118080644
5	125177	29980.579328776214	9.708824140736
5	125227	29989.887834150609	1.317213434166
5	125234	29991.036745087627	0.125220920835
5	125253	29997.696224261511	1.136506590107
5	125262	29999.796163245275	3.125538541236

