version 2
run Second-n2-17-20191016-14:53:07-11712
attr configname Second-n2
attr datetime 20191016-14:53:07
attr experiment Second-n2
attr inifile omnetpp.ini
attr iterationvars ""
attr iterationvarsf ""
attr measurement ""
attr network org.omnetpp.queueing.Pizza
attr processid 11712
attr repetition 17
attr replication ""
attr resultdir results
attr runnumber 17
attr seedset 17
param **.PS.maxInventoriedPS 2
param **.U1.interArrivalTime exponential(3s)
param **.U2.interArrivalTime exponential(5s)
param **.PS.serviceTimeForInventoryU1 exponential(1.0s)
param **.PS.serviceTimeForInventoryU2 exponential(1.2s)
param **.PS.serviceTimeDirectU1 exponential(1.4s)
param **.PS.serviceTimeDirectU2 exponential(1.4s)
param **.PS.probabilityProducing 0.7
param **.CS.serviceTimeU1 exponential(1.1s)
param **.CS.serviceTimeU2 exponential(1.4s)

vector 0 Pizza.EntryQueueU1 queueLength:vector ETV
attr interpolationmode sample-hold
attr title "queue length, vector"
vector 1 Pizza.CS queueLength:vector ETV
attr interpolationmode sample-hold
attr title "queue length, vector"
vector 2 Pizza.EntryQueueU2 queueLength:vector ETV
attr interpolationmode sample-hold
attr title "queue length, vector"
vector 3 Pizza.sink lifeTime:vector ETV
attr interpolationmode none
attr title "lifetime of arrived jobs, vector"
attr unit s
vector 4 Pizza.sink lifeTimeU2:vector ETV
attr interpolationmode none
attr title "lifetime of arrived jobs, vector"
attr unit s
0	0	0	0
0	5	1.047247255701	1
0	7	1.685048182551	2
0	14	5.771218478445	1
0	20	6.86417560558	0
0	31	8.276072354561	1
0	33	8.461841154521	2
0	37	10.996664588065	3
0	41	11.7248412663	4
0	43	12.680114120848	5
0	44	13.92573888514	4
0	51	14.317506457533	3
0	56	14.318743441827	2
0	62	15.087335796086	3
0	63	15.631670751943	2
0	69	16.294599312194	1
0	73	16.60011468518	2
0	78	17.090873285139	3
0	81	17.589398082797	2
0	87	18.379692451846	1
0	94	19.302932502665	0
0	107	21.352279347224	1
0	109	21.488786685629	0
0	140	31.289649284237	1
0	141	31.434302479754	0
0	160	38.96726725403	1
0	162	40.221216666062	2
0	163	40.580058110849	1
0	173	42.258196157986	2
0	174	43.39629176804	1
0	179	44.164793909113	0
0	199	44.855588459216	1
0	202	46.656689158004	2
0	204	49.694997265764	1
0	209	49.991652385596	0
0	226	54.091438845597	1
0	227	54.253272956746	0
0	249	57.633153982868	1
0	255	58.497678463404	2
0	257	58.834393657366	3
0	259	59.16592491107	2
0	265	59.316924427298	3
0	266	60.089858006271	2
0	271	60.109280757478	1
0	277	61.491956317801	2
0	282	66.393947226069	1
0	286	66.858923090006	2
0	292	68.527897028017	1
0	297	68.68965544005	0
0	309	73.003844739778	1
0	311	73.385253749535	2
0	313	74.224476230271	1
0	323	75.806986387451	2
0	324	76.727877406368	1
0	330	76.842540672921	2
0	332	78.408552162034	1
0	340	79.467123601845	2
0	342	79.598848496384	1
0	349	80.003543143462	2
0	351	81.981837210566	3
0	352	83.338961451614	2
0	358	83.453805242217	3
0	360	84.70508210492	2
0	367	85.004205523436	3
0	369	86.738679193703	4
0	371	87.36560317724	5
0	372	90.054869937957	4
0	377	92.772426441959	3
0	382	94.319538025427	2
0	386	95.750659484204	3
0	392	99.804585642332	4
0	393	99.874798578282	3
0	398	100.427919900641	2
0	404	100.610307815618	3
0	405	101.390231219862	2
0	417	104.208150228462	3
0	419	104.753357300672	4
0	420	104.787966176384	3
0	427	105.308276932065	4
0	428	105.431992610646	3
0	435	105.852526393634	2
0	440	106.05027694801	1
0	445	110.418855112182	0
0	500	128.467411186492	1
0	503	132.538281486003	0
0	513	133.772340195177	1
0	515	134.108869439041	2
0	517	134.313184567028	3
0	521	135.001079345775	4
0	525	136.134869403696	3
0	531	136.635472376023	2
0	537	137.090190377933	3
0	539	137.530698586715	4
0	540	137.561296560425	3
0	546	137.815987147186	4
0	548	138.48579558985	3
0	555	139.474061925324	2
0	560	139.630396370141	1
0	566	139.862031626484	0
0	572	140.299096962729	1
0	573	140.308740422634	0
0	577	140.862405715004	1
0	581	141.235481405778	0
0	592	144.622677346284	1
0	593	145.033312367262	0
0	599	146.950602386884	1
0	601	147.234304032885	2
0	606	150.082441674582	1
0	613	151.659496286248	0
0	617	154.086400367042	1
0	622	156.346764809925	2
0	624	156.360601373993	3
0	628	157.279745730063	4
0	629	158.975888727379	3
0	637	160.843709015455	2
0	642	161.461947194218	1
0	650	163.491110729178	0
0	666	164.235567545831	1
0	669	165.974431031566	0
0	691	172.039231882123	1
0	692	172.610251330656	0
0	698	172.703950936071	1
0	700	173.080000599661	0
0	717	177.105087741283	1
0	719	178.360632156544	2
0	721	178.669326991044	3
0	725	179.897799204051	4
0	728	184.968497195626	3
0	733	185.056779414454	2
0	741	186.245194158867	3
0	743	186.583937945967	4
0	744	187.00558854769	3
0	749	187.924265893719	2
0	754	188.083991910652	1
0	758	188.810714662911	2
0	764	191.633211788206	3
0	768	194.806548486163	2
0	772	195.086627704143	3
0	777	197.477366187906	2
0	782	204.405568247009	1
0	788	205.632185905626	2
0	789	206.372759247617	1
0	794	207.879822516869	0
0	798	209.356237181406	1
0	803	210.43433426854	0
0	819	212.750046430847	1
0	820	213.773272506274	0
0	831	214.713164106137	1
0	833	214.940709661162	2
0	835	214.969380669129	3
0	841	218.103968793069	4
0	843	220.70596204514	3
0	847	221.577128373567	4
0	849	221.903300147169	5
0	856	225.952275488325	6
0	857	226.193744238192	5
0	862	226.929660423796	4
0	868	227.924112108489	3
0	873	229.283314498724	2
0	881	232.871382262545	3
0	884	234.505434030702	2
0	891	236.080403964179	3
0	892	236.793646723222	2
0	897	237.504544271393	1
0	906	239.752467620042	2
0	910	241.813426226116	1
0	916	241.927261761001	2
0	918	242.519710263609	3
0	919	244.03433714092	2
0	924	244.073942742999	1
0	928	244.114077295582	2
0	930	244.603358801006	3
0	934	246.081878148655	4
0	937	246.890082305635	5
0	938	247.540086863856	4
0	947	248.101488105163	5
0	948	248.190587744468	4
0	954	248.498861597766	5
0	959	250.235082553531	6
0	960	250.347405427152	5
0	966	252.26034017492	4
0	972	252.520186376817	3
0	977	252.730532865406	2
0	984	255.017997267803	3
0	986	255.954387790927	2
0	992	256.234314622233	3
0	996	258.758000816484	2
0	1001	258.799975146378	1
0	1008	259.602383938958	2
0	1010	261.046775456159	1
0	1015	261.273455899717	0
0	1025	264.035920585001	1
0	1026	264.145869105581	0
0	1037	265.053652058639	1
0	1039	266.718368865723	0
0	1059	272.326203908136	1
0	1061	272.635741054163	2
0	1062	272.711225701061	1
0	1067	273.164637320888	0
0	1077	274.568644972043	1
0	1081	274.709284607925	2
0	1082	275.407898393107	1
0	1089	275.658077766334	2
0	1091	276.682928648313	1
0	1098	278.246017156053	2
0	1099	280.819055662784	1
0	1105	280.955884591987	0
0	1114	282.16052236513	1
0	1116	282.391545825527	2
0	1118	282.903376138905	3
0	1120	284.619455811659	4
0	1123	285.567476580607	3
0	1130	286.361083235871	2
0	1138	290.593490007829	3
0	1139	290.864271332337	2
0	1147	291.786415378518	1
0	1153	293.687859744154	0
0	1176	299.635564532365	1
0	1178	300.10920153415	2
0	1179	300.589567196118	1
0	1184	301.161254473578	0
0	1205	303.78880976365	1
0	1206	303.936575962202	0
0	1218	304.762541732767	1
0	1223	304.956293490669	2
0	1225	305.207129476145	3
0	1227	307.848187632995	4
0	1229	307.854994943738	5
0	1230	308.240854759822	4
0	1236	309.074350594197	3
0	1242	310.68869600674	2
0	1247	311.574574360422	1
0	1252	312.229338897775	0
0	1270	316.13943177598	1
0	1273	316.930201060564	0
0	1304	320.363192696409	1
0	1307	321.279486586384	0
0	1328	329.343454359095	1
0	1332	330.811521049765	2
0	1333	331.540217480505	1
0	1338	332.432906961131	0
0	1342	332.599335716789	1
0	1346	335.482000767204	2
0	1350	336.710254789763	1
0	1355	339.593759104399	0
0	1366	340.849142901972	1
0	1368	341.299280148254	2
0	1370	342.018279996738	1
0	1378	347.093783304961	0
0	1395	348.401304134935	1
0	1396	348.516974658307	0
0	1405	352.418537518341	1
0	1408	353.006249160677	0
0	1418	354.840328749984	1
0	1422	355.352547431341	2
0	1425	356.92203219058	1
0	1430	357.518879846197	0
0	1434	357.599124626923	1
0	1437	358.522743472147	0
0	1453	360.64059076798	1
0	1456	363.234263139996	0
0	1466	364.939527001427	1
0	1468	364.97997501388	2
0	1470	364.986350337173	3
0	1473	365.892226371091	2
0	1478	366.858752613832	1
0	1483	367.911550019823	0
0	1496	370.093048479225	1
0	1498	370.229286608509	2
0	1500	370.617359050465	3
0	1501	371.031359005847	2
0	1505	371.785748156769	3
0	1508	373.166325890293	2
0	1515	374.03184856083	1
0	1519	374.087807076899	2
0	1522	376.229264482735	1
0	1526	376.693748219799	2
0	1530	378.045756304699	1
0	1538	378.924245288819	0
0	1557	381.537543494413	1
0	1560	382.139039409534	0
0	1567	384.103678451414	1
0	1568	384.181903314521	0
0	1583	385.520298890206	1
0	1585	385.74766675472	2
0	1589	388.711959163166	3
0	1591	389.883077155081	4
0	1595	391.047553406133	5
0	1599	393.509454128412	6
0	1601	395.534214089824	7
0	1603	395.644856694487	8
0	1604	395.902729239855	7
0	1609	396.729630513732	6
0	1613	397.270289332433	7
0	1616	397.88554851565	6
0	1626	399.298909731467	7
0	1627	399.656260399273	6
0	1633	399.981725640722	7
0	1638	401.158259884298	8
0	1639	401.163906132817	7
0	1647	401.384081793448	8
0	1648	401.448979441902	7
0	1655	402.486754679304	6
0	1660	402.521084292505	5
0	1665	402.993700874711	4
0	1673	404.981482040029	3
0	1678	405.277748742128	2
0	1685	405.921013686538	1
0	1690	407.453989573617	0
0	1696	407.938952283079	1
0	1698	407.98044433629	2
0	1701	409.573625291828	1
0	1708	412.247666626111	0
0	1721	414.972271135847	1
0	1722	415.093669096804	0
0	1726	415.585170028579	1
0	1729	416.270990549429	0
0	1733	418.17149017223	1
0	1735	418.17849284559	2
0	1739	419.725044331221	3
0	1742	419.978846024213	2
0	1746	420.037251788822	3
0	1751	422.201495956082	2
0	1761	427.321851019862	1
0	1767	427.764921800826	2
0	1769	427.916869765902	3
0	1771	428.503443394594	2
0	1776	429.47362879219	1
0	1781	431.596920273989	0
0	1809	436.823271751476	1
0	1810	438.93697522729	0
0	1819	440.245791831333	1
0	1823	442.267290746046	0
0	1858	449.98519488846	1
0	1860	450.208600297045	2
0	1862	451.258937292951	3
0	1865	453.691344349675	2
0	1871	455.205105611098	1
0	1877	456.835526638426	0
0	1907	467.262883532875	1
0	1911	467.859516007621	2
0	1915	468.359946228793	1
0	1920	468.964701657665	0
0	1932	471.654751995035	1
0	1934	473.003880756536	2
0	1936	473.332181966729	3
0	1941	476.248408865123	2
0	1948	478.713178454967	1
0	1954	482.310557115673	0
0	1970	484.626286144086	1
0	1976	485.496555654405	2
0	1979	485.610397053334	3
0	1982	487.045861416803	2
0	1988	487.338121985798	1
0	1993	487.50533123272	0
0	2001	491.591154222786	1
0	2004	492.611664991953	0
0	2027	496.002459798875	1
0	2028	496.693146013787	0
0	2035	497.250234698722	1
0	2037	499.908587592837	0
0	2056	501.7877027581	1
0	2060	504.591613047167	0
0	2084	507.176372482358	1
0	2085	508.688433956699	0
0	2091	509.112542415545	1
0	2092	509.392339824688	0
0	2105	511.25286589629	1
0	2106	511.318211284278	0
0	2113	516.207922885547	1
0	2115	518.91551383539	2
0	2116	519.165940303601	1
0	2125	520.323556639704	2
0	2126	520.517207524938	1
0	2131	520.633768800005	0
0	2166	528.998185948977	1
0	2168	529.288952821305	2
0	2170	529.825723316748	3
0	2173	531.264917865454	2
0	2178	532.081163481186	1
0	2187	534.353711728836	2
0	2188	534.817738351208	1
0	2194	535.431040991748	2
0	2200	538.41686256685	3
0	2203	539.122695117467	2
0	2211	540.963561115684	3
0	2213	541.074182814747	4
0	2214	541.274219216236	3
0	2219	541.759221790438	2
0	2224	542.807658973783	1
0	2231	544.471833181239	0
0	2237	546.636186273619	1
0	2240	551.434067093284	0
0	2284	559.380245338194	1
0	2288	560.483135516252	2
0	2291	561.371600055155	1
0	2296	561.386640634443	0
0	2308	563.736880520962	1
0	2309	564.491001451988	0
0	2320	565.860684372329	1
0	2327	566.62758893464	0
0	2341	568.888823199184	1
0	2346	569.325004770261	2
0	2347	569.700111120204	1
0	2354	570.493229398527	0
0	2368	574.838269603632	1
0	2372	579.43330701344	2
0	2374	580.318818246969	3
0	2376	580.526078130074	4
0	2380	581.480780049615	5
0	2382	581.597665382058	6
0	2385	581.899162476367	7
0	2387	582.744227460218	6
0	2396	584.365022747723	5
0	2402	584.389380602507	6
0	2403	584.670513924959	5
0	2411	585.002548910868	6
0	2412	585.470160073746	5
0	2418	586.461590968555	4
0	2424	586.764418553872	3
0	2431	587.235202543819	4
0	2432	587.436923328505	3
0	2438	589.742556692527	2
0	2445	590.19026242387	3
0	2448	591.449054060905	2
0	2453	592.099433961514	1
0	2458	592.303233330083	0
0	2462	592.975480802879	1
0	2464	595.990660293747	2
0	2469	597.594248931823	1
0	2474	598.913907985421	0
0	2489	602.846719585644	1
0	2493	603.070714004476	2
0	2494	606.363678169386	1
0	2500	607.543748122645	0
0	2533	618.433771089051	1
0	2535	618.949196811558	2
0	2537	619.795636412954	3
0	2538	619.887438134932	2
0	2544	620.416386133668	3
0	2546	620.66561660154	2
0	2553	621.37127798598	3
0	2554	622.060689965427	2
0	2560	622.634790803369	1
0	2566	622.99628960505	2
0	2567	623.031610798127	1
0	2576	624.821773377008	0
0	2594	627.159419439207	1
0	2599	628.147001883847	0
0	2605	628.23529342639	1
0	2606	628.349952613466	0
0	2615	630.071836386197	1
0	2619	631.25702811008	2
0	2622	631.428775773648	1
0	2628	632.751439484461	2
0	2631	635.775393176497	1
0	2637	636.922051471356	0
0	2664	640.078408474588	1
0	2667	641.102219308218	2
0	2669	641.11103277068	3
0	2670	641.269773181621	2
0	2677	642.64148266839	3
0	2679	644.297448734863	2
0	2685	646.045206460524	1
0	2692	646.624815392286	0
0	2700	649.068671553485	1
0	2702	649.921319397189	2
0	2703	649.933638116586	1
0	2710	650.362334252995	2
0	2711	651.183391881975	1
0	2720	651.886978889548	2
0	2721	652.638162104124	1
0	2729	652.817931156721	2
0	2731	652.905264542147	3
0	2732	653.29263183227	2
0	2737	654.01089225984	1
0	2744	657.389237803662	0
0	2753	660.474256287729	1
0	2755	660.704904802068	2
0	2756	660.869871469148	1
0	2762	661.365851756834	2
0	2763	661.457833747797	1
0	2770	662.044943494904	0
0	2774	663.104975761326	1
0	2778	663.334359363778	2
0	2779	663.531824500375	1
0	2784	664.030689843865	0
0	2806	666.176311014116	1
0	2808	666.986280503488	0
0	2822	668.96668117234	1
0	2824	669.217152301707	2
0	2826	669.36526909467	3
0	2827	669.80192367658	2
0	2832	669.959738370976	1
0	2838	670.670226228083	2
0	2840	671.542175244851	3
0	2842	671.707632419028	2
0	2849	672.01119467811	1
0	2857	674.265583665567	2
0	2858	674.270753304972	1
0	2864	674.928653688095	0
0	2871	675.727078959784	1
0	2873	677.069578841386	0
0	2880	677.373867351627	1
0	2883	678.228926441414	0
0	2895	678.966771073936	1
0	2897	679.331174255591	2
0	2899	682.109012653201	1
0	2909	683.619257217496	0
0	2929	687.741235796945	1
0	2930	689.062060540324	0
0	2953	693.73759363398	1
0	2955	694.923665814375	2
0	2956	695.575784959916	1
0	2961	696.154082414364	0
0	3001	706.060266695538	1
0	3004	706.734829931864	0
0	3031	709.981806336357	1
0	3034	710.367680264427	0
0	3045	712.091176758599	1
0	3049	713.972428406633	0
0	3055	715.127552153483	1
0	3057	717.47293671546	0
0	3073	719.723482490665	1
0	3077	720.144247412155	2
0	3081	721.01089120963	3
0	3083	721.372947108667	4
0	3085	722.867678825549	5
0	3089	723.158586473665	6
0	3091	724.361085932376	5
0	3098	724.900313472025	4
0	3103	725.455858856406	3
0	3108	726.635192320427	2
0	3112	726.691743057684	3
0	3114	727.871599613322	4
0	3116	727.89395468635	5
0	3120	728.542926538761	6
0	3121	728.847215796654	5
0	3129	729.995490917182	4
0	3135	730.258528699688	3
0	3140	730.280811585693	2
0	3144	730.376111940946	3
0	3147	732.160313570456	2
0	3155	734.282280162025	1
0	3160	734.354983287163	0
0	3164	735.235064147924	1
0	3166	735.405914087312	2
0	3174	738.660192384366	3
0	3175	739.208576450712	2
0	3185	743.307224703161	1
0	3190	743.858906911517	0
0	3194	744.138717965962	1
0	3198	745.764969979622	2
0	3199	745.780896871535	1
0	3205	746.82744938884	2
0	3206	747.218622650387	1
0	3211	747.815263224946	0
0	3230	752.583754753652	1
0	3231	753.117598673783	0
0	3262	761.381476520748	1
0	3266	762.790357430084	2
0	3271	764.572501485092	1
0	3276	764.741729249995	0
0	3282	765.293975888186	1
0	3284	765.769233112457	0
0	3290	766.149308705204	1
0	3292	766.3364326301	0
0	3324	779.842214322047	1
0	3326	781.086665966068	2
0	3330	781.85153617768	3
0	3332	782.506189627662	4
0	3338	783.663078754121	5
0	3339	784.215389576558	4
0	3345	785.938926979293	3
0	3351	786.506801052002	2
0	3359	787.393381049529	3
0	3360	788.321543815674	2
0	3365	788.408854039067	1
0	3371	790.132756718222	2
0	3372	790.281580250353	1
0	3381	793.968262801958	2
0	3384	798.694657392641	1
0	3390	799.244134994507	0
0	3414	802.218445048486	1
0	3415	802.517508719584	0
0	3442	810.194804510868	1
0	3447	811.505483635039	0
0	3465	815.732909913527	1
0	3469	816.255240662528	2
0	3470	816.560762680766	1
0	3478	817.669523919804	0
0	3533	832.986489443037	1
0	3534	835.910061651735	0
0	3540	835.939544225724	1
0	3542	838.416267203294	0
0	3558	843.208934883016	1
0	3559	844.193304861468	0
0	3571	846.470375788177	1
0	3574	848.755607914998	0
0	3597	852.163985298856	1
0	3599	852.353863713255	2
0	3602	854.17108240261	1
0	3608	854.999970989609	0
0	3614	856.179045221533	1
0	3616	856.437558085511	2
0	3620	858.383178328908	1
0	3625	858.643976859588	0
0	3637	858.973877678034	1
0	3642	864.704388665041	0
0	3648	865.786027073036	1
0	3649	866.434257756622	0
0	3660	867.384538666941	1
0	3661	867.478687649644	0
0	3671	869.856842910141	1
0	3676	872.168250927294	0
0	3693	874.186886076567	1
0	3695	874.70303377617	0
0	3719	878.746030194008	1
0	3722	880.540750555949	2
0	3723	882.570749518798	1
0	3728	882.639084366979	0
0	3750	886.787378716602	1
0	3751	887.690778403778	0
0	3757	890.982594350538	1
0	3761	892.405828911565	2
0	3762	892.833842667178	1
0	3766	893.50765312572	2
0	3770	894.4947102308	3
0	3772	894.826708956181	4
0	3784	897.971805889077	3
0	3790	898.044036515616	4
0	3793	898.385453226273	5
0	3794	898.45243871344	4
0	3799	899.313655130522	3
0	3804	899.422089850269	2
0	3809	900.397056197639	1
0	3813	901.147734412951	2
0	3817	902.547208629095	1
0	3822	903.204031655422	0
0	3836	906.4520600249	1
0	3837	906.890329518237	0
0	3851	909.062103559512	1
0	3853	910.0128403994	2
0	3854	911.119023731884	1
0	3860	911.251674703781	2
0	3863	912.625422285088	3
0	3865	912.820042513669	4
0	3867	913.17741873595	3
0	3872	913.472822391691	2
0	3878	916.091219157881	1
0	3883	916.750129527535	0
0	3889	917.372178643044	1
0	3890	917.521738899401	0
0	3911	924.256508822214	1
0	3914	925.664544264985	0
0	3923	927.332962205221	1
0	3926	928.071247511881	0
0	3975	944.105367670786	1
0	3981	945.149984327219	2
0	3984	945.735335652332	3
0	3986	948.567056028078	4
0	3990	951.238914538905	5
0	3991	951.935034230653	4
0	3996	952.08634660756	3
0	4002	953.716527987548	2
0	4007	954.235003471294	1
0	4012	955.563227197289	0
0	4018	957.022365519843	1
0	4023	957.358374515224	0
0	4043	961.517062471765	1
0	4045	962.157998128686	2
0	4052	965.079365255913	1
0	4058	965.132819220049	2
0	4059	965.309584528428	1
0	4065	965.316090162321	2
0	4067	965.542395781204	3
0	4068	965.645879752511	2
0	4072	968.712873494077	3
0	4078	970.92123294383	2
0	4084	972.738265490506	1
0	4089	973.555096527564	0
0	4121	981.881000847458	1
0	4125	982.085013640349	2
0	4127	983.513082881156	1
0	4132	983.677799199867	0
0	4140	984.414336408297	1
0	4143	985.407173247166	0
0	4154	985.92184840827	1
0	4155	986.025238092485	0
0	4159	986.342532440678	1
0	4161	986.845953999287	2
0	4164	987.704219227363	1
0	4169	988.550436787824	0
0	4173	988.858751674034	1
0	4177	989.996549447611	2
0	4180	990.098249591095	1
0	4184	990.151973994181	2
0	4188	990.658281679884	1
0	4194	990.946217893552	2
0	4196	991.81477005838	1
0	4202	992.707303842385	0
0	4215	993.836646941431	1
0	4217	993.910687844853	2
0	4218	994.165384345153	1
0	4226	996.047559204971	0
0	4238	999.106665264373	1
0	4240	999.323266119071	2
0	4241	999.510799949287	1
0	4248	1001.498449366471	2
0	4249	1002.262803345843	1
0	4254	1002.314375448864	0
0	4260	1003.142686459258	1
0	4262	1004.068031319763	0
0	4284	1006.312334560841	1
0	4286	1006.833553450397	2
0	4290	1007.325026723984	1
0	4295	1007.432245648971	0
0	4303	1008.583163021002	1
0	4304	1008.712906603861	0
0	4318	1011.704764940514	1
0	4320	1012.178930763247	2
0	4324	1013.22373654829	3
0	4326	1013.286380120391	4
0	4331	1014.682843049461	5
0	4335	1015.253680290186	6
0	4336	1015.289660352011	5
0	4343	1015.405437893243	4
0	4350	1016.800040471022	3
0	4355	1017.005728744526	2
0	4360	1017.802052925557	1
0	4364	1020.007007567794	2
0	4367	1021.011660186336	1
0	4373	1021.838306489057	0
0	4384	1022.068179847358	1
0	4385	1022.85949786929	0
0	4389	1022.935795741486	1
0	4396	1026.411349129821	0
0	4400	1026.855029847952	1
0	4402	1027.276597190055	2
0	4406	1029.535811487007	3
0	4407	1029.718735900929	2
0	4415	1032.909862392155	3
0	4418	1032.995652919869	4
0	4422	1033.800096491248	5
0	4425	1034.132871467086	4
0	4431	1034.192467652035	5
0	4432	1035.908099397163	4
0	4438	1036.346152190992	5
0	4439	1037.174525216349	4
0	4445	1040.560321303429	3
0	4454	1041.270751997917	2
0	4464	1043.659620313294	1
0	4469	1043.960367109154	0
0	4482	1045.190598278767	1
0	4485	1046.870631259191	2
0	4489	1048.401435968726	3
0	4490	1048.723147190252	2
0	4495	1048.736192369057	1
0	4504	1049.278047856373	0
0	4508	1049.511459996996	1
0	4510	1050.718049188037	2
0	4514	1053.015224259721	3
0	4519	1056.359112643881	2
0	4525	1056.726392985519	3
0	4526	1058.092244484903	2
0	4530	1058.415226232859	3
0	4533	1059.650428026459	2
0	4539	1061.575872234086	3
0	4540	1062.427169742992	2
0	4551	1065.317902241168	1
0	4556	1065.673768733125	0
0	4577	1068.789547829665	1
0	4582	1069.899135134875	0
0	4609	1078.010645229693	1
0	4615	1083.075597164982	2
0	4622	1086.970364945173	1
0	4627	1088.570884669399	0
0	4636	1089.979606624076	1
0	4641	1092.075205897946	0
0	4655	1092.739453372496	1
0	4660	1093.882947611492	2
0	4661	1095.021747516734	1
0	4666	1095.634695973566	0
0	4672	1096.313187272055	1
0	4674	1097.450861011313	2
0	4676	1097.675243728254	1
0	4681	1097.686699000879	0
0	4685	1097.94218640775	1
0	4691	1100.641509325457	0
0	4721	1104.298334239648	1
0	4723	1106.974037083253	0
0	4736	1109.762927346829	1
0	4738	1110.776153581775	2
0	4740	1112.556058229837	3
0	4743	1115.839243205233	2
0	4749	1116.267958773848	3
0	4750	1117.444896855466	2
0	4757	1118.368990210133	3
0	4759	1118.754571652527	2
0	4764	1118.834198706257	1
0	4769	1118.837117285463	0
0	4773	1120.567265608825	1
0	4775	1121.780200622736	2
0	4778	1125.88426374562	1
0	4790	1130.520741860598	0
0	4811	1134.398346780422	1
0	4816	1136.783702721809	0
0	4822	1136.855934953123	1
0	4824	1137.334889557909	2
0	4825	1138.315381150548	1
0	4832	1138.475076023044	0
0	4838	1138.96163261897	1
0	4841	1139.150211871914	0
0	4845	1139.453202711064	1
0	4847	1139.738475415641	2
0	4850	1141.552564406259	1
0	4854	1142.974684677937	2
0	4856	1143.566728062712	3
0	4859	1144.677669060333	2
0	4866	1146.56281948104	1
0	4872	1146.736195978013	2
0	4873	1146.773379047005	1
0	4878	1147.246326577384	0
0	4889	1149.378662349697	1
0	4890	1149.431235154417	0
0	4905	1151.995625483623	1
0	4907	1152.612542650355	2
0	4909	1152.735938304934	3
0	4910	1153.040455067441	2
0	4918	1155.068618597072	3
0	4919	1156.127809145686	2
0	4924	1156.192711119232	1
0	4929	1156.785129107242	0
0	4940	1157.6445003272	1
0	4942	1160.327569403285	2
0	4943	1161.722599679515	1
0	4950	1162.01058124614	0
0	4963	1167.4602028311	1
0	4965	1167.505031082892	2
0	4966	1168.109715427731	1
0	4971	1168.790060221814	0
0	4975	1169.356805884887	1
0	4977	1169.373004657776	2
0	4983	1170.538714585911	3
0	4987	1171.805140927756	4
0	4988	1171.819568711818	3
0	4992	1172.624104392482	4
0	4994	1173.294382285538	5
0	4996	1173.968789119116	6
0	4998	1174.372529014313	7
0	5001	1174.937235320901	6
0	5011	1177.041230824301	7
0	5012	1177.839780769875	6
0	5018	1179.213645027653	5
0	5026	1180.571779730397	4
0	5034	1181.97595520802	3
0	5040	1182.378471063046	4
0	5041	1182.663319929129	3
0	5052	1185.035071482528	2
0	5061	1185.488957605949	3
0	5063	1185.795883414256	4
0	5064	1187.134990027708	3
0	5069	1187.233555243411	2
0	5074	1188.204222095859	1
0	5079	1189.077584526269	0
0	5090	1191.234887882544	1
0	5093	1191.41225036947	2
0	5095	1192.969434603793	1
0	5101	1193.269901447315	0
0	5108	1194.50220085831	1
0	5110	1195.452670525379	2
0	5112	1196.377462958635	3
0	5117	1198.449804851082	2
0	5123	1198.612862236432	3
0	5125	1199.119679517957	4
0	5128	1200.009881055134	5
0	5130	1201.305044413717	4
0	5135	1201.959164181933	3
0	5142	1202.972178944776	4
0	5143	1204.744153647238	3
0	5148	1205.102966373396	2
0	5152	1205.106265701085	3
0	5156	1207.44270639941	2
0	5165	1208.153833637737	1
0	5171	1208.69217732522	2
0	5174	1210.387260320422	1
0	5179	1210.561919162794	0
0	5185	1211.934172024888	1
0	5187	1212.672904554226	2
0	5188	1216.799061825601	1
0	5192	1216.96740896649	2
0	5198	1217.941031623936	3
0	5200	1218.255409850658	4
0	5202	1218.702618467487	5
0	5203	1219.056576859983	4
0	5211	1219.57218579697	3
0	5217	1220.235116765647	2
0	5222	1220.767979128924	1
0	5227	1220.865007294676	0
0	5231	1221.205059335733	1
0	5233	1221.550743048689	2
0	5236	1222.383351568972	1
0	5243	1223.675592062528	0
0	5260	1226.520302805372	1
0	5264	1228.026644901481	2
0	5266	1228.854640366638	1
0	5274	1231.389558739533	2
0	5275	1231.399707138844	1
0	5280	1231.746530677202	0
0	5286	1234.469869696238	1
0	5288	1234.750707568931	0
0	5312	1244.847676976258	1
0	5314	1244.875881370088	0
0	5329	1248.507371053679	1
0	5331	1249.625376637249	2
0	5333	1251.163249779026	3
0	5335	1252.311849514753	4
0	5337	1256.141176819938	5
0	5338	1256.391999204138	4
0	5344	1256.473068791349	5
0	5348	1258.182668281752	4
0	5354	1259.171362824757	3
0	5362	1263.480234356952	2
0	5368	1264.748886614391	3
0	5370	1265.322411024993	2
0	5375	1265.370856139193	1
0	5380	1265.647563831561	0
0	5384	1266.622228773012	1
0	5388	1268.243782444173	0
0	5399	1268.618398386235	1
0	5400	1268.706133400756	0
0	5408	1270.515738546139	1
0	5409	1271.000893499313	0
0	5415	1272.336917098629	1
0	5416	1272.627182911186	0
0	5428	1274.195026765155	1
0	5434	1275.310259748795	0
0	5449	1278.128592410624	1
0	5451	1279.139532555056	2
0	5453	1280.45832632403	3
0	5455	1280.991901642214	4
0	5459	1282.297148668785	3
0	5464	1282.563218364769	2
0	5470	1283.004331542142	1
0	5476	1283.778421848491	2
0	5479	1285.260940055795	1
0	5486	1286.368650074309	0
0	5497	1288.118619392521	1
0	5498	1288.39686900667	0
0	5514	1289.830258659966	1
0	5519	1296.240083703048	0
0	5525	1296.249561738161	1
0	5526	1297.472281317539	0
0	5532	1298.047084447465	1
0	5535	1299.677229002483	0
0	5551	1301.616716646072	1
0	5557	1305.993105155536	2
0	5558	1306.850414592383	1
0	5563	1306.971401888105	0
0	5574	1308.097313222302	1
0	5577	1308.952788570525	0
0	5594	1312.12544641795	1
0	5596	1312.593685106922	2
0	5598	1313.764857943172	3
0	5601	1314.413454344207	2
0	5606	1314.896516075598	1
0	5612	1315.253167217746	2
0	5614	1315.257776757623	3
0	5617	1316.186293966933	4
0	5618	1316.657499149508	3
0	5626	1317.044407544706	4
0	5627	1317.519793975958	3
0	5633	1320.754866369383	4
0	5638	1323.416142326263	3
0	5643	1323.442281899822	2
0	5649	1323.616995478412	3
0	5650	1323.943375228386	2
0	5659	1326.213209009093	1
0	5666	1326.727671319955	0
0	5679	1329.246511544526	1
0	5681	1329.739111767409	2
0	5682	1330.34354093458	1
0	5689	1330.657502821527	2
0	5690	1331.516554660112	1
0	5697	1333.07081741703	0
0	5703	1333.450293761651	1
0	5707	1334.243094539766	2
0	5711	1334.632769874537	1
0	5719	1336.504198900092	2
0	5720	1336.680505941574	1
0	5727	1338.924573134529	0
0	5733	1339.008100558318	1
0	5735	1339.230826611607	2
0	5738	1339.95605652582	1
0	5744	1340.847028601904	0
0	5763	1343.261076965029	1
0	5764	1346.74797736765	0
0	5775	1347.93416556309	1
0	5781	1349.913202889266	0
0	5792	1351.426134716284	1
0	5795	1351.7564077187	0
0	5806	1353.306010932095	1
0	5808	1353.470554668107	2
0	5819	1357.11710420233	1
0	5824	1357.604880699976	0
0	5828	1358.497921581484	1
0	5832	1359.185035429423	2
0	5837	1360.049351143225	1
0	5842	1360.686260923573	0
0	5850	1364.159270984015	1
0	5853	1366.571814291053	0
0	5860	1367.600982549048	1
0	5862	1367.921652485062	2
0	5865	1369.441595416115	1
0	5870	1369.596939263934	0
0	5893	1375.846456104023	1
0	5895	1375.956163724506	2
0	5896	1376.702805009828	1
0	5904	1377.693235538176	2
0	5906	1378.058984477657	3
0	5908	1378.217256877851	2
0	5916	1379.916565840567	3
0	5917	1379.964170160128	2
0	5923	1381.514583050444	1
0	5928	1382.594983507901	0
0	5956	1386.1333170328	1
0	5959	1387.29772117847	0
0	5963	1387.474999238813	1
0	5967	1388.301713211168	0
0	5973	1388.661969275913	1
0	5975	1389.779044653355	0
0	5991	1391.470722018901	1
0	5996	1392.194399755835	0
0	6000	1392.604376694724	1
0	6002	1392.994110464919	2
0	6009	1395.305286334226	3
0	6011	1395.539602749504	2
0	6017	1395.784800061101	3
0	6018	1395.844003696083	2
0	6022	1397.487893373735	3
0	6025	1399.166850675302	2
0	6031	1400.152803392466	3
0	6032	1400.167505869099	2
0	6037	1400.494610449825	1
0	6041	1401.153052200756	2
0	6044	1401.389841956345	1
0	6049	1401.811988409045	0
0	6053	1402.089178782535	1
0	6055	1403.849633912393	2
0	6059	1406.091511632987	3
0	6061	1406.923283436607	2
0	6068	1408.084401944288	3
0	6070	1408.435407470168	4
0	6071	1408.733231018367	3
0	6080	1409.876146162905	4
0	6081	1410.300300169484	3
0	6088	1412.126840111902	2
0	6096	1412.966580362061	1
0	6103	1414.778227499621	2
0	6105	1415.010079839928	3
0	6107	1415.098816104614	4
0	6111	1415.909020943979	5
0	6112	1416.666305353621	4
0	6117	1417.527991451291	3
0	6124	1418.525380578005	4
0	6125	1419.279727937111	3
0	6131	1420.774207269334	2
0	6141	1421.273723835034	1
0	6148	1422.538454705749	0
0	6179	1428.629756174974	1
0	6181	1430.233907062896	2
0	6186	1432.05208870538	1
0	6191	1432.415382864049	0
0	6207	1435.136657682648	1
0	6210	1435.909665194502	0
0	6220	1439.183115950362	1
0	6224	1439.567625845752	2
0	6225	1440.139737059862	1
0	6230	1440.213310739892	0
0	6239	1441.737677529608	1
0	6244	1445.511806239702	0
0	6261	1446.74340476991	1
0	6266	1447.86924900691	0
0	6281	1450.177198770387	1
0	6286	1453.326953250913	2
0	6287	1453.987995339035	1
0	6294	1456.443007164481	0
0	6308	1457.388797499036	1
0	6310	1457.714646793715	2
0	6312	1458.26374528834	1
0	6320	1459.37502817484	2
0	6322	1461.793123353593	3
0	6326	1466.146864492931	4
0	6327	1466.18023727821	3
0	6333	1467.739859831113	2
0	6338	1467.820222376898	1
0	6344	1468.337046161047	2
0	6345	1469.220883015907	1
0	6355	1472.451178541315	2
0	6358	1472.931291808468	1
0	6363	1475.691372588227	0
0	6367	1476.320195178099	1
0	6374	1477.62727818969	2
0	6376	1478.234500824365	1
0	6381	1478.43613325728	0
0	6387	1479.117777594134	1
0	6388	1479.758860909417	0
0	6415	1484.864154673475	1
0	6417	1486.398004801204	0
0	6428	1489.079028614655	1
0	6432	1490.023453452237	0
0	6463	1499.775817211714	1
0	6465	1501.593206966111	2
0	6468	1501.828437543518	1
0	6477	1504.435228414182	0
0	6483	1505.093045920996	1
0	6486	1505.519618621091	2
0	6488	1505.600863644426	3
0	6490	1506.302821120258	4
0	6492	1506.895973422261	5
0	6495	1507.896387406074	4
0	6501	1507.908990974388	5
0	6502	1508.077885606875	4
0	6508	1510.360547545564	5
0	6512	1511.795205682003	4
0	6518	1514.990727789687	5
0	6519	1516.02567179314	4
0	6524	1517.036166452367	3
0	6532	1519.591442557453	2
0	6542	1520.709207866382	3
0	6543	1520.903470544185	2
0	6550	1521.065888614786	3
0	6553	1523.413061466176	2
0	6559	1523.750440184239	3
0	6561	1523.767348251733	4
0	6564	1524.420570114149	5
0	6565	1524.752666588008	4
0	6570	1526.364386734988	3
0	6577	1526.978215273272	4
0	6578	1527.739531023591	3
0	6583	1528.62983850348	2
0	6587	1529.750789455378	3
0	6591	1530.533977596736	4
0	6593	1530.54986729312	5
0	6596	1532.259185738186	4
0	6600	1532.504491819169	5
0	6602	1532.539244293421	6
0	6604	1532.783633739163	7
0	6608	1534.533312680727	6
0	6613	1534.545758659991	5
0	6618	1535.789189371009	4
0	6623	1536.482460467469	3
0	6628	1537.564149830972	2
0	6633	1539.453985263978	1
0	6638	1540.918824193309	0
0	6647	1542.573003608434	1
0	6649	1543.550516888922	0
0	6666	1548.052391127463	1
0	6668	1548.347601878318	2
0	6669	1549.189315894418	1
0	6676	1549.60055117198	0
0	6704	1560.715497316877	1
0	6710	1562.064382168803	2
0	6711	1563.201337543442	1
0	6717	1564.138701109606	2
0	6718	1564.217429430596	1
0	6727	1566.272118633728	0
0	6739	1572.225178180452	1
0	6740	1572.237801018395	0
0	6747	1573.075675937726	1
0	6748	1573.154894973735	0
0	6781	1576.298465040444	1
0	6782	1576.791720818395	0
0	6794	1580.213350839969	1
0	6799	1584.459156673281	0
0	6812	1586.261667021758	1
0	6816	1586.990815080162	0
0	6838	1589.213629232649	1
0	6839	1589.244460609548	0
0	6879	1602.595808086781	1
0	6881	1602.631672779458	2
0	6883	1603.167339518552	3
0	6887	1606.736005990382	2
0	6892	1607.970634451026	1
0	6899	1609.656980399963	0
0	6915	1612.633506516781	1
0	6919	1612.969610352108	2
0	6922	1615.483080990544	1
0	6928	1616.093247649445	2
0	6931	1618.280875207487	1
0	6938	1619.087909231986	2
0	6939	1620.164344657726	1
0	6944	1620.263676016645	0
0	6967	1623.896763938927	1
0	6969	1625.523344004113	2
0	6972	1626.669542706864	1
0	6977	1627.8098496236	0
0	6983	1627.961457299186	1
0	6987	1628.473138757949	2
0	6988	1629.265186350726	1
0	6996	1630.419949297719	2
0	6997	1631.180022017432	1
0	7003	1631.470503907842	2
0	7004	1631.582150178464	1
0	7009	1632.541098883969	0
0	7030	1637.302100996649	1
0	7032	1637.756775113862	2
0	7034	1638.293180227419	3
0	7035	1638.817039216498	2
0	7043	1640.348648929378	1
0	7051	1642.743902814028	0
0	7067	1644.853532796911	1
0	7071	1645.519731614664	0
0	7089	1648.51705407831	1
0	7090	1650.245660107177	0
0	7105	1653.423966701653	1
0	7107	1653.664877249126	2
0	7110	1655.515262690836	1
0	7115	1655.844702936819	0
0	7123	1656.123698828825	1
0	7124	1658.251415728259	0
0	7131	1658.972063237316	1
0	7132	1659.238199147338	0
0	7136	1659.704418377755	1
0	7138	1659.945386652801	2
0	7141	1663.092713102625	1
0	7145	1663.384047887078	2
0	7147	1664.034266274361	3
0	7149	1664.081455784317	4
0	7156	1665.461349626559	5
0	7158	1665.823997295987	4
0	7165	1666.589348015365	3
0	7170	1666.795515227463	2
0	7175	1667.525732859669	1
0	7180	1668.361630040951	0
0	7191	1671.186579850886	1
0	7194	1671.809038755493	0
0	7212	1676.436373772014	1
0	7213	1677.275210260218	0
0	7219	1677.472780776595	1
0	7223	1678.645390858655	0
0	7244	1683.726786755791	1
0	7248	1684.90194623147	0
0	7263	1685.895662937938	1
0	7268	1686.680645830894	2
0	7272	1687.578825368886	3
0	7274	1688.17212630681	4
0	7275	1688.670634849428	3
0	7281	1688.80097686572	2
0	7286	1689.653533658995	1
0	7291	1689.853702349771	0
0	7302	1693.333222957191	1
0	7304	1693.348001234004	2
0	7305	1693.491617867147	1
0	7312	1694.84820724545	0
0	7316	1696.047360904664	1
0	7321	1698.569126943217	0
0	7348	1707.161339048347	1
0	7349	1707.769222635873	0
0	7358	1707.93237088376	1
0	7362	1708.481731102657	0
0	7451	1731.213455477653	1
0	7452	1732.320310209147	0
0	7465	1733.645175442991	1
0	7466	1733.834248474582	0
0	7473	1734.468769231909	1
0	7474	1734.686974547316	0
0	7489	1736.908825340795	1
0	7492	1738.024360993024	0
0	7513	1740.793866316904	1
0	7518	1741.597487689967	2
0	7519	1742.14993112775	1
0	7525	1742.841601289376	0
0	7539	1743.381624878751	1
0	7543	1743.552434499752	2
0	7545	1744.12485111109	3
0	7549	1744.935132264857	4
0	7550	1745.878844997596	3
0	7555	1746.315390149665	2
0	7560	1747.178230305359	1
0	7568	1749.859731689898	0
0	7575	1750.492670023083	1
0	7576	1750.568480726236	0
0	7587	1752.25051224649	1
0	7590	1752.310104711027	0
0	7617	1759.738827160759	1
0	7619	1760.099873584164	2
0	7623	1762.154257348722	3
0	7624	1762.380576940383	2
0	7629	1762.712408611307	1
0	7634	1762.791930104699	0
0	7654	1768.275533325965	1
0	7655	1768.417479424114	0
0	7672	1770.531843319997	1
0	7673	1771.449354301831	0
0	7677	1771.521498145646	1
0	7682	1773.156965171905	0
0	7690	1774.889844600168	1
0	7693	1776.554355385968	0
0	7725	1784.607627671966	1
0	7727	1785.114877046618	0
0	7739	1786.327411681589	1
0	7740	1786.412996245347	0
0	7752	1790.495588504827	1
0	7755	1794.10789941566	0
0	7762	1794.326907349732	1
0	7764	1794.448678326916	0
0	7781	1797.640780009324	1
0	7783	1797.791799831993	2
0	7789	1800.523400254073	3
0	7791	1800.601036218341	4
0	7792	1801.327494863883	3
0	7797	1801.495373571948	2
0	7802	1801.912524050642	1
0	7807	1802.976071409691	0
0	7817	1804.454826787575	1
0	7819	1804.92711846815	2
0	7823	1805.200214701333	3
0	7825	1805.452977925308	4
0	7828	1807.379163812653	3
0	7834	1809.494555018056	2
0	7841	1809.84801122151	1
0	7847	1810.852647707741	0
0	7860	1813.130634500755	1
0	7861	1814.876884669937	0
0	7867	1814.926376014522	1
0	7869	1816.731464900162	2
0	7871	1818.73080004292	3
0	7874	1818.924861207241	4
0	7876	1819.494019499953	5
0	7878	1819.870598582754	6
0	7879	1820.713432088991	5
0	7886	1821.394407914127	4
0	7894	1822.716152458502	5
0	7898	1824.240891186556	6
0	7899	1824.626204902244	5
0	7906	1824.893527574028	4
0	7910	1826.075150032113	5
0	7915	1829.551748039544	4
0	7920	1831.780907476291	3
0	7925	1832.409647160695	2
0	7929	1832.807647726772	3
0	7934	1834.274548116629	4
0	7935	1835.963449181161	3
0	7941	1836.726699945194	4
0	7943	1837.256057828344	5
0	7945	1837.435002770207	6
0	7946	1838.283566194424	5
0	7952	1839.929859101452	4
0	7960	1840.458714185083	5
0	7961	1841.629147256586	4
0	7965	1841.699335760303	5
0	7970	1845.152262677741	4
0	7975	1845.299909750515	3
0	7981	1845.440096931306	4
0	7984	1846.385366543821	3
0	7991	1847.11045467161	2
0	7999	1847.886197278102	1
0	8005	1847.938663746398	2
0	8007	1848.63439321076	3
0	8010	1850.143863589697	2
0	8016	1851.41687212016	3
0	8019	1852.658095004179	2
0	8026	1853.817283129877	3
0	8028	1854.269107359694	4
0	8029	1855.213348212612	3
0	8036	1855.995711892921	4
0	8038	1856.338267634575	5
0	8040	1856.689529774597	6
0	8041	1858.174086341115	5
0	8046	1859.781319148624	4
0	8051	1860.401253506596	3
0	8058	1863.272279103942	2
0	8064	1864.841825622562	3
0	8065	1865.211576926128	2
0	8074	1868.795066930693	1
0	8081	1870.21140074882	2
0	8082	1870.42017324576	1
0	8087	1870.826710549786	0
0	8091	1872.131159370258	1
0	8095	1873.482089691799	0
0	8101	1873.961276260224	1
0	8104	1874.15108348663	0
0	8108	1874.688777924155	1
0	8112	1875.181922586896	2
0	8113	1875.519205251892	1
0	8119	1876.707548707399	2
0	8120	1876.868129707976	1
0	8127	1879.0154021609	0
0	8131	1879.106712462984	1
0	8134	1880.141096304336	0
0	8175	1885.946123100296	1
0	8177	1887.005890198884	2
0	8179	1887.23471002792	3
0	8181	1888.296169313426	4
0	8185	1890.074835782993	5
0	8187	1890.379698469965	6
0	8190	1890.871071508087	5
0	8195	1891.032206585744	4
0	8200	1891.06579918243	3
0	8205	1891.430506417499	2
0	8213	1892.649103622928	1
0	8219	1894.317881640151	0
0	8233	1894.931365832795	1
0	8241	1896.985945057803	2
0	8244	1897.225046452037	1
0	8249	1898.178586118991	0
0	8263	1899.200847650685	1
0	8266	1900.975661677835	0
0	8278	1903.566430761149	1
0	8283	1905.191940122117	2
0	8287	1907.308435629089	3
0	8288	1907.45315394337	2
0	8294	1909.020202126809	1
0	8300	1909.037369590279	2
0	8302	1909.938982278059	1
0	8307	1910.628215518445	0
0	8314	1911.284006334042	1
0	8316	1911.36629072601	2
0	8317	1912.659869336513	1
0	8323	1913.276262593548	2
0	8324	1913.726220405125	1
0	8335	1915.025007718456	0
0	8361	1921.108493230436	1
0	8362	1921.989688819445	0
0	8368	1922.326767992699	1
0	8369	1922.945430593423	0
0	8376	1923.307987350124	1
0	8377	1924.341579746097	0
0	8389	1927.337099416798	1
0	8392	1928.598833652688	0
0	8401	1929.906764475351	1
0	8408	1932.968161768913	0
0	8417	1934.21700680054	1
0	8418	1935.092149319133	0
0	8425	1936.978090359391	1
0	8426	1937.080023633682	0
0	8446	1942.869672179869	1
0	8448	1944.773092025267	2
0	8452	1948.887558270413	3
0	8455	1951.890768576519	2
0	8460	1953.950869965717	1
0	8465	1954.365475523636	0
0	8475	1956.881341817612	1
0	8481	1959.990171716213	2
0	8482	1960.028547839223	1
0	8488	1960.034020986005	2
0	8489	1960.051383136821	1
0	8495	1961.087514617118	0
0	8513	1963.208197013131	1
0	8517	1963.595787369972	0
0	8529	1963.970234739323	1
0	8532	1967.936944911705	0
0	8555	1971.964164554143	1
0	8558	1972.789310646799	0
0	8573	1978.036280816135	1
0	8575	1982.154795065409	2
0	8579	1982.582724278672	3
0	8580	1984.205612956127	2
0	8585	1984.475905593426	1
0	8592	1984.645188174044	2
0	8594	1984.767037356715	3
0	8596	1985.249630178344	4
0	8597	1986.010874280701	3
0	8605	1987.57567097522	2
0	8609	1987.698621017597	3
0	8612	1988.368052565483	2
0	8616	1988.928617136314	3
0	8619	1989.944227233846	2
0	8625	1991.477665378596	3
0	8627	1993.239635308076	2
0	8633	1993.380712537854	3
0	8634	1993.56179439811	2
0	8639	1993.815737458356	1
0	8653	1997.856600722318	0
0	8665	1998.966258754577	1
0	8668	2000.558351951169	0
0	8695	2005.269869327874	1
0	8696	2006.295422742288	0
0	8705	2006.420356090715	1
0	8709	2008.517713964041	0
0	8716	2009.036081904275	1
0	8718	2009.21789315014	2
0	8719	2009.252046451151	1
0	8724	2009.580133592848	0
0	8743	2014.495073906871	1
0	8745	2014.711974323094	2
0	8746	2014.991681818911	1
0	8751	2016.134700128655	0
0	8764	2022.077223070173	1
0	8765	2023.300454304679	0
0	8771	2023.487810329467	1
0	8772	2023.576180158236	0
0	8788	2025.398161135721	1
0	8794	2027.713084649938	0
0	8815	2031.268497868392	1
0	8821	2032.775085863443	2
0	8822	2033.967998093727	1
0	8828	2035.340172972169	0
0	8839	2036.424995017963	1
0	8845	2037.315523803503	2
0	8848	2038.271146477597	1
0	8855	2039.493702755151	2
0	8859	2040.392087868112	3
0	8860	2040.848406347861	2
0	8867	2041.31746565727	3
0	8868	2041.61114572023	2
0	8876	2042.252099008319	3
0	8880	2044.209269864907	2
0	8886	2046.158958749034	1
0	8892	2046.203298081442	2
0	8893	2046.522532774549	1
0	8904	2047.8143531094	2
0	8906	2047.857002287354	3
0	8907	2051.197786366226	2
0	8913	2051.714060628895	1
0	8919	2052.799482094205	0
0	8932	2054.340036676962	1
0	8933	2054.686597657757	0
0	8949	2056.122620299147	1
0	8951	2060.227544256606	0
0	8960	2060.654610289574	1
0	8964	2063.780736334072	0
0	8973	2065.29464175992	1
0	8975	2066.098922347056	2
0	8976	2066.513202280061	1
0	8982	2066.659135051004	2
0	8985	2067.843322793528	3
0	8986	2068.661799544944	2
0	8991	2068.759823630835	1
0	8996	2072.00864928616	0
0	9049	2086.768590204003	1
0	9051	2087.524424957135	2
0	9052	2088.630179273123	1
0	9061	2090.92776675767	2
0	9063	2092.519919771342	3
0	9064	2092.74933899974	2
0	9070	2093.332445329475	1
0	9075	2094.001671799333	0
0	9084	2095.677663456144	1
0	9087	2097.351331288452	0
0	9104	2098.503189704528	1
0	9106	2099.702890556029	2
0	9107	2100.247971921597	1
0	9113	2100.252223352224	2
0	9114	2101.283324220392	1
0	9119	2101.841762257094	0
0	9128	2104.379284189274	1
0	9129	2104.789457422892	0
0	9158	2110.6578067329	1
0	9159	2110.801658168459	0
0	9171	2111.115027177321	1
0	9173	2111.81707930135	0
0	9180	2112.31074861228	1
0	9181	2117.039450613557	0
0	9195	2118.682456265196	1
0	9197	2121.032431101595	0
0	9203	2121.966583965228	1
0	9204	2122.459876900957	0
0	9216	2123.917868736209	1
0	9217	2123.978545623856	0
0	9241	2127.700647810018	1
0	9245	2130.201788526033	0
0	9254	2134.61278976872	1
0	9256	2135.070258982208	2
0	9260	2136.218740845856	1
0	9265	2136.342707823558	0
0	9283	2138.831885770016	1
0	9284	2139.709714550403	0
0	9290	2140.333067283951	1
0	9292	2141.132286293915	0
0	9309	2145.467375828561	1
0	9312	2146.820655003387	0
0	9326	2150.154446119139	1
0	9327	2150.299874215237	0
0	9348	2153.716322407943	1
0	9349	2153.967162066798	0
0	9362	2156.05814769121	1
0	9367	2156.686644566872	0
0	9426	2164.404663111613	1
0	9434	2167.148030548801	2
0	9435	2168.235814076424	1
0	9444	2169.025922717709	2
0	9446	2170.336484542402	3
0	9448	2170.419562462196	4
0	9450	2170.421512328259	5
0	9451	2171.08137136454	4
0	9456	2171.11326983977	3
0	9464	2173.126482505718	4
0	9465	2173.50424794324	3
0	9471	2173.649511996258	2
0	9479	2174.038021396924	3
0	9480	2175.289744283108	2
0	9484	2175.429489136838	3
0	9486	2175.477495152564	4
0	9490	2178.654273176663	5
0	9491	2181.21882165653	4
0	9495	2181.633315805382	5
0	9498	2181.776321140546	4
0	9505	2182.775507269533	5
0	9506	2183.612708670525	4
0	9512	2183.700840385952	5
0	9513	2183.877390420726	4
0	9517	2184.307828134932	5
0	9525	2186.525638197096	6
0	9528	2188.359166430558	5
0	9534	2188.420341620252	6
0	9536	2188.884312193737	7
0	9539	2189.96121996505	8
0	9540	2190.602710411986	7
0	9545	2190.638565116581	6
0	9551	2190.907067647495	7
0	9552	2191.006724859536	6
0	9556	2192.031567363109	7
0	9560	2193.115056096841	8
0	9566	2194.084675323523	9
0	9567	2194.250625089035	8
0	9572	2194.714608057074	7
0	9579	2196.192014376562	6
0	9583	2196.443894431739	7
0	9587	2196.799340038194	6
0	9592	2197.428683251489	5
0	9597	2197.597613904961	4
0	9601	2198.052584795954	5
0	9605	2200.339383915086	6
0	9606	2200.433494135091	5
0	9610	2201.637059114638	6
0	9614	2202.887189688753	7
0	9616	2203.200609906066	8
0	9617	2204.325170556074	7
0	9622	2205.667718225859	6
0	9627	2206.579225679364	5
0	9632	2207.813763763439	4
0	9636	2207.955431007011	5
0	9639	2212.961330504082	4
0	9648	2217.048789536871	3
0	9653	2217.169537875557	2
0	9658	2217.352944168551	1
0	9663	2218.495105709341	0
0	9670	2219.226570256197	1
0	9671	2223.040917684168	0
0	9694	2226.591766000217	1
0	9700	2229.29574657534	2
0	9701	2229.598340684094	1
0	9707	2230.082666647673	0
0	9724	2232.235521778359	1
0	9726	2232.611199706334	0
0	9733	2233.891346924901	1
0	9734	2234.718574296235	0
0	9751	2238.678804440229	1
0	9753	2240.021745759944	2
0	9761	2245.433036723228	3
0	9762	2246.332566195888	2
0	9767	2246.382086099995	1
0	9772	2246.640478239509	0
0	9776	2247.036984681178	1
0	9780	2247.813144241956	2
0	9786	2249.425528993772	3
0	9787	2249.84630800251	2
0	9792	2250.553853677499	1
0	9797	2251.022574833743	0
0	9801	2252.783665308569	1
0	9806	2254.900411989927	0
0	9822	2257.718127733598	1
0	9826	2258.296212455248	2
0	9828	2258.434229962846	3
0	9832	2259.045462993454	4
0	9833	2260.669240150856	3
0	9838	2260.673927425501	2
0	9845	2261.00570888452	3
0	9847	2262.461631656376	4
0	9848	2263.210128790052	3
0	9855	2267.765657596943	2
0	9860	2267.84565431518	1
0	9864	2268.797710407333	2
0	9868	2269.329326575511	3
0	9869	2269.718120419034	2
0	9877	2271.392568599953	3
0	9882	2273.378746863391	4
0	9884	2273.420703722473	5
0	9885	2274.643569985637	4
0	9890	2274.89201850877	3
0	9894	2275.295979121405	4
0	9899	2276.654321443609	5
0	9901	2277.393855338188	4
0	9906	2278.31166631223	3
0	9911	2280.237821650206	2
0	9916	2282.501273959499	1
0	9922	2284.654081094171	0
0	9928	2284.724317447234	1
0	9930	2285.009204186749	0
0	9938	2285.340659138022	1
0	9939	2285.435921572607	0
0	9943	2286.884289538392	1
0	9946	2289.664550200926	0
0	9950	2291.065323235563	1
0	9955	2292.609887518043	0
0	9972	2296.961410245035	1
0	9973	2297.532928316755	0
0	9982	2298.61436722262	1
0	9984	2298.869108785672	2
0	9987	2299.54111683672	1
0	9992	2299.878389407866	0
0	9996	2301.193112640995	1
0	10000	2302.38557157745	0
0	10016	2305.235259189074	1
0	10018	2305.716814499632	0
0	10022	2305.963570536859	1
0	10028	2306.923873779661	0
0	10042	2308.07622895675	1
0	10043	2308.471800634434	0
0	10066	2316.001996727983	1
0	10068	2316.24188187727	2
0	10071	2317.75113888028	1
0	10077	2319.610499917573	0
0	10088	2320.699396540458	1
0	10090	2320.832185198516	2
0	10092	2321.552676009455	3
0	10094	2321.691903179561	4
0	10098	2323.086064636415	3
0	10109	2325.764255171576	4
0	10110	2325.83381173281	3
0	10115	2326.486552483868	2
0	10121	2327.852455669453	3
0	10122	2328.336839077153	2
0	10129	2330.313177719029	1
0	10135	2332.925914993464	0
0	10162	2336.672653811774	1
0	10166	2338.733122602986	2
0	10168	2339.859581329745	3
0	10169	2340.008659482127	2
0	10174	2340.997771035012	1
0	10181	2341.821828381788	2
0	10186	2343.154927703931	3
0	10189	2343.870743881155	2
0	10194	2343.884217499122	1
0	10199	2344.90613072445	0
0	10212	2349.355130134726	1
0	10214	2350.505162083914	2
0	10217	2351.264730588889	1
0	10227	2352.964570460652	2
0	10228	2353.577354906799	1
0	10233	2354.158217436595	0
0	10255	2355.212575943432	1
0	10257	2355.468279615394	2
0	10262	2359.222371560823	3
0	10263	2359.556097176106	2
0	10269	2359.620338262538	3
0	10272	2362.18878070629	4
0	10274	2362.54005192154	5
0	10275	2362.598930109818	4
0	10286	2365.195218869382	5
0	10287	2365.494761707901	4
0	10294	2366.979048864474	5
0	10296	2367.709571377068	6
0	10298	2368.141743402629	7
0	10300	2368.924903614692	8
0	10301	2369.17260018797	7
0	10306	2369.180355431061	6
0	10317	2371.180195690116	5
0	10323	2371.311699167454	6
0	10324	2371.312976347923	5
0	10330	2372.273057717058	6
0	10332	2375.116102358185	5
0	10337	2375.452528393276	4
0	10343	2379.458526023344	5
0	10344	2379.903273617009	4
0	10348	2380.328978503571	5
0	10352	2382.294826481421	6
0	10355	2385.342662683462	5
0	10360	2385.5669156673	4
0	10364	2385.655204258502	5
0	10369	2387.04359774446	6
0	10371	2387.578351464895	7
0	10376	2389.266265621753	8
0	10377	2389.443293359897	7
0	10382	2389.726453805913	6
0	10390	2392.177978815835	7
0	10393	2392.658934078869	6
0	10399	2394.249495929569	7
0	10403	2396.688985423707	8
0	10407	2398.009179492373	9
0	10408	2398.057357486031	8
0	10413	2398.126908049027	7
0	10419	2400.260791652612	8
0	10422	2401.684244469557	7
0	10427	2404.577131238603	6
0	10432	2404.800299178164	5
0	10437	2407.909185234322	4
0	10441	2409.055195620716	5
0	10443	2409.20581181473	6
0	10448	2413.673503251277	5
0	10454	2413.927324937184	6
0	10455	2413.979151296311	5
0	10464	2414.611765686205	4
0	10468	2414.954346085821	5
0	10470	2415.511825934468	6
0	10474	2417.660246296651	5
0	10481	2418.529375178077	4
0	10490	2420.513571240115	3
0	10498	2423.939125352147	4
0	10500	2424.664013457233	5
0	10501	2424.817565527822	4
0	10507	2425.509611190739	3
0	10512	2425.861060921533	2
0	10521	2428.19601959982	1
0	10528	2428.667735504414	2
0	10529	2431.701473417132	1
0	10535	2433.330852499134	2
0	10536	2434.244672322567	1
0	10542	2435.349109371507	0
0	10548	2435.860338462896	1
0	10550	2436.019659011489	2
0	10553	2436.736558124235	3
0	10554	2437.609574309233	2
0	10559	2437.717923783424	1
0	10564	2438.86643273342	0
0	10644	2459.223735882336	1
0	10645	2459.312251751908	0
0	10651	2459.540230252008	1
0	10652	2459.769601962955	0
0	10661	2460.450219878352	1
0	10666	2463.89149172698	0
0	10685	2467.096013646475	1
0	10690	2470.64754614428	0
0	10721	2476.468522810996	1
0	10722	2476.560268136896	0
0	10729	2477.327399588892	1
0	10730	2477.938561322059	0
0	10741	2479.095521482605	1
0	10746	2483.223624767857	2
0	10748	2483.518855189133	3
0	10750	2483.815889080859	4
0	10751	2484.473625820877	3
0	10756	2486.166898864075	2
0	10761	2486.410054511155	1
0	10769	2488.278523917685	2
0	10772	2490.064717285904	3
0	10773	2490.086600707917	2
0	10782	2491.21750066701	3
0	10785	2491.318353108221	2
0	10790	2491.447622612158	1
0	10796	2494.124275010574	0
0	10800	2494.421941260786	1
0	10803	2494.6562466537	0
0	10809	2494.718816101852	1
0	10811	2494.968333063644	0
0	10819	2496.584681221349	1
0	10821	2496.970029153884	0
0	10832	2497.891667162858	1
0	10833	2498.429816239772	0
0	10847	2502.396830396366	1
0	10848	2503.190750054041	0
0	10859	2504.024793722919	1
0	10863	2506.059137713575	0
0	10877	2509.585130475674	1
0	10881	2511.351543160406	0
0	10903	2515.847516385566	1
0	10905	2516.360905830368	2
0	10909	2516.848579679847	3
0	10911	2520.478368139546	4
0	10915	2522.595794732971	5
0	10916	2523.962474130368	4
0	10922	2528.462744837591	3
0	10928	2530.652835077382	2
0	10933	2530.683344579507	1
0	10942	2535.013582317782	0
0	10973	2541.891843171565	1
0	10975	2545.097674558082	2
0	10980	2548.204101056172	1
0	10987	2548.963734602225	2
0	10988	2548.998562524429	1
0	10994	2549.272629510493	2
0	10995	2549.563544528597	1
0	11001	2550.298025994863	0
0	11012	2553.006319752452	1
0	11015	2553.380608508933	0
0	11050	2559.325793284543	1
0	11054	2561.361731112846	0
0	11067	2563.536720463196	1
0	11069	2564.545825345503	0
0	11075	2564.927595700668	1
0	11076	2565.001024070191	0
0	11108	2576.039697109751	1
0	11112	2577.374450550064	2
0	11116	2585.40497261538	3
0	11120	2586.410399370496	4
0	11121	2587.881935641113	3
0	11130	2589.386634296748	4
0	11134	2589.578816176876	5
0	11135	2590.006348901431	4
0	11141	2590.520196423669	5
0	11142	2591.078250891841	4
0	11148	2591.311125823368	5
0	11151	2592.641982182327	4
0	11157	2593.126258071173	3
0	11163	2593.554560447567	4
0	11170	2597.332871139031	5
0	11171	2597.359029706668	4
0	11177	2598.078187258876	3
0	11183	2599.338177038462	2
0	11189	2599.920146437916	1
0	11196	2601.815697690592	2
0	11197	2602.598747112344	1
0	11202	2602.68604822438	0
0	11208	2602.700180103855	1
0	11211	2603.934418167564	0
0	11222	2605.71635968591	1
0	11225	2606.167820813592	0
0	11231	2609.400667194014	1
0	11234	2611.592022215925	0
0	11246	2614.014631493817	1
0	11250	2614.732189361342	0
0	11267	2615.659490154542	1
0	11271	2616.655568555752	0
0	11282	2617.350178766836	1
0	11285	2621.003665983064	2
0	11286	2621.721823943051	1
0	11292	2622.345853541601	2
0	11296	2624.222519777084	1
0	11301	2625.456362820589	0
0	11339	2638.888035560802	1
0	11340	2639.321812963608	0
0	11354	2641.637051934561	1
0	11358	2642.593704441977	0
0	11389	2651.027927401356	1
0	11390	2651.304135358725	0
0	11406	2653.088714610041	1
0	11412	2655.16677551599	2
0	11414	2655.873305313609	1
0	11419	2656.093856025086	0
0	11444	2658.55205228583	1
0	11446	2659.305620986854	0
0	11488	2667.441267997093	1
0	11489	2667.581162449524	0
0	11516	2675.357830297968	1
0	11517	2675.784186000514	0
0	11541	2681.44542511322	1
0	11544	2681.828452884184	0
0	11562	2685.550420311044	1
0	11565	2686.273730025534	0
0	11599	2692.469101633758	1
0	11600	2693.060632593409	0
0	11607	2693.327526967642	1
0	11610	2694.513915494426	2
0	11611	2694.614863445499	1
0	11618	2694.922442464302	2
0	11619	2695.34476047517	1
0	11624	2696.68964580446	0
0	11632	2698.826438063828	1
0	11633	2699.353021124114	0
0	11647	2703.505895827509	1
0	11650	2706.531245864727	0
0	11665	2708.402355494685	1
0	11668	2709.320435760026	2
0	11669	2710.634718216679	1
0	11674	2711.071214372471	0
0	11680	2711.101650909254	1
0	11681	2711.103546681299	0
0	11699	2713.399474250114	1
0	11701	2713.482017180306	2
0	11707	2715.473068381776	1
0	11716	2717.561176085442	0
0	11728	2720.58997005495	1
0	11731	2721.738490035342	0
0	11738	2722.34746261372	1
0	11741	2722.704350671673	0
0	11753	2728.564642467016	1
0	11754	2728.900244943042	0
0	11760	2729.014418784841	1
0	11762	2729.221709287371	2
0	11764	2729.489446945423	3
0	11765	2729.830384931626	2
0	11770	2730.521141815004	1
0	11779	2736.789309179699	0
0	11786	2738.595220888443	1
0	11788	2739.130862493784	2
0	11789	2739.190514705498	1
0	11796	2739.282211671101	2
0	11797	2739.657086834292	1
0	11803	2740.624065394261	0
0	11815	2742.696822850557	1
0	11817	2744.239654176422	0
0	11823	2744.549291048462	1
0	11824	2744.588113140116	0
0	11847	2748.651738069237	1
0	11848	2751.27869232627	0
0	11879	2760.406743817488	1
0	11883	2760.836531981884	2
0	11886	2762.230087931269	1
0	11893	2762.601440175174	2
0	11895	2764.911445295206	1
0	11900	2765.479904148112	0
0	11906	2766.93300862086	1
0	11908	2766.992788926767	2
0	11910	2768.175251697738	3
0	11914	2769.067316455591	4
0	11915	2770.731799600624	3
0	11919	2770.903839598321	4
0	11922	2772.749687971393	3
0	11931	2775.246321975187	2
0	11936	2775.721765650735	1
0	11943	2776.129585750661	0
0	11947	2777.234311245566	1
0	11949	2778.673039637685	2
0	11951	2778.922415680044	3
0	11953	2779.071613354367	4
0	11955	2779.947485640936	5
0	11957	2780.471388760767	6
0	11960	2781.365127901127	5
0	11965	2781.665707323059	4
0	11972	2782.320883940567	3
0	11978	2784.234459755548	4
0	11980	2784.577958564015	5
0	11982	2785.389843501301	6
0	11988	2787.171992499841	7
0	11990	2788.305279102894	6
0	11995	2788.385507531835	5
0	11999	2788.512289519873	6
0	12003	2790.725876465416	5
0	12008	2791.620172305238	4
0	12015	2792.748995528682	5
0	12017	2794.252790488147	4
0	12022	2794.347399284495	3
0	12029	2794.504800365713	4
0	12030	2795.15166252673	3
0	12037	2795.349982103196	4
0	12038	2796.242260955729	3
0	12044	2796.522447023536	4
0	12045	2797.129820453973	3
0	12049	2798.025826769339	4
0	12052	2799.38957079652	3
0	12058	2801.350416426401	4
0	12061	2802.617413262041	3
0	12065	2803.638517350163	4
0	12070	2804.839995594407	3
0	12075	2806.113881468382	2
0	12081	2808.197683289152	1
0	12088	2813.060475589718	0
0	12094	2813.445840801509	1
0	12095	2813.450947269454	0
0	12110	2816.726297165739	1
0	12111	2816.877009047963	0
0	12129	2818.965239907767	1
0	12130	2818.988326485911	0
0	12148	2820.35345584561	1
0	12149	2821.107083080774	0
0	12169	2826.11283348963	1
0	12173	2826.463984222603	2
0	12174	2826.55051424644	1
0	12180	2827.878872317379	0
0	12194	2831.654585148639	1
0	12196	2835.116221201462	2
0	12201	2837.894102642696	3
0	12206	2839.447415636643	2
0	12212	2840.001617956348	3
0	12214	2841.094826175475	2
0	12221	2843.891262246885	1
0	12226	2843.939860194214	0
0	12261	2849.291104181087	1
0	12264	2849.988936997523	0
0	12273	2850.116097129898	1
0	12275	2850.961374277441	2
0	12278	2851.80836996371	1
0	12283	2851.935286396496	0
0	12306	2857.409096616403	1
0	12309	2858.69300305184	0
0	12355	2872.587937342447	1
0	12356	2872.639774319454	0
0	12392	2882.999305378825	1
0	12399	2884.905694353104	2
0	12400	2885.748863871693	1
0	12406	2886.171319266412	2
0	12408	2886.401686253687	3
0	12409	2886.451979006096	2
0	12415	2887.503414015452	3
0	12417	2888.772373115009	2
0	12424	2891.935514525	1
0	12430	2892.584933926589	0
0	12457	2899.052678679995	1
0	12458	2900.356228632276	0
0	12493	2904.962710123658	1
0	12494	2905.137426303024	0
0	12526	2914.233263013177	1
0	12528	2914.878543768776	2
0	12529	2916.429156570489	1
0	12535	2916.676279486214	0
0	12561	2922.881222309355	1
0	12564	2924.769571401574	0
0	12590	2933.429508130668	1
0	12591	2936.654897823292	0
0	12600	2937.118615557121	1
0	12601	2937.300489657989	0
0	12613	2938.275740106672	1
0	12616	2940.802696111449	0
0	12630	2943.555432494916	1
0	12634	2944.446616642952	2
0	12636	2945.802019604431	1
0	12642	2946.761913891849	0
0	12648	2948.28469210186	1
0	12650	2950.405035474661	0
0	12654	2951.476759687511	1
0	12657	2953.268277096935	0
0	12692	2964.26462937952	1
0	12694	2965.121231454712	0
0	12730	2973.55004354779	1
0	12733	2974.608254744609	0
0	12739	2974.731308726858	1
0	12741	2974.835042820735	2
0	12742	2975.255702161972	1
0	12748	2975.385626397429	2
0	12750	2975.868309301235	1
0	12757	2977.52885231651	2
0	12758	2978.266498255838	1
0	12764	2978.798926737413	0
0	12791	2983.854396827734	1
0	12795	2986.410426643442	0
0	12803	2987.000765830718	1
0	12804	2987.112300573093	0
0	12810	2987.231470502625	1
0	12811	2987.499166680301	0
0	12815	2987.841870341525	1
0	12820	2988.829992468924	0
0	12832	2990.308074560456	1
0	12834	2990.742926353359	0
0	12864	2997.451602894987	1
0	12865	2997.572984718463	0
0	12900	3007.179810689052	1
0	12907	3011.239476956178	0
0	12934	3023.127941428236	1
0	12940	3026.392389586809	0
0	12955	3028.420771129134	1
0	12957	3030.445822057248	2
0	12960	3032.985838688509	1
0	12965	3034.273183460521	0
0	13009	3045.521299609179	1
0	13011	3046.300877793593	0
0	13018	3047.657346298737	1
0	13020	3050.018162844361	0
0	13065	3066.59889878349	1
0	13067	3066.755015969073	2
0	13071	3067.441924294154	3
0	13072	3067.732876243408	2
0	13078	3069.821123455992	3
0	13079	3070.249513014505	2
0	13083	3071.150068614416	3
0	13085	3072.385724872237	4
0	13087	3073.340668249569	5
0	13089	3075.445131577377	6
0	13091	3078.621960745988	7
0	13093	3079.506800793478	8
0	13096	3079.767406698535	7
0	13100	3080.959940461602	8
0	13102	3082.044650357792	9
0	13104	3082.90253959989	10
0	13106	3083.326714304533	11
0	13108	3084.184287886016	12
0	13110	3085.093227186762	13
0	13123	3087.512108502701	12
0	13129	3088.046952646052	11
0	13136	3088.606039314487	12
0	13138	3089.587655731206	11
0	13143	3089.760521823535	10
0	13150	3091.026714760387	9
0	13155	3091.114485077976	8
0	13160	3092.787075642754	7
0	13164	3095.612789078715	8
0	13169	3097.694295258393	9
0	13170	3097.787141484909	8
0	13175	3098.477798840595	7
0	13179	3098.808589435495	8
0	13185	3100.887039880272	9
0	13190	3101.820260590486	10
0	13193	3104.768721916916	9
0	13202	3105.730101006993	8
0	13208	3106.316019107023	9
0	13215	3106.995958649943	10
0	13216	3107.028897150064	9
0	13221	3107.296791750215	8
0	13225	3107.818282398604	9
0	13228	3109.489220922813	8
0	13235	3111.043736249411	9
0	13236	3113.461058912542	8
0	13243	3115.106729023365	7
0	13250	3116.755409217021	8
0	13252	3116.792178680414	9
0	13253	3117.287315331056	8
0	13259	3117.848751682203	7
0	13264	3118.008390394775	6
0	13268	3119.856472235604	7
0	13276	3121.335562419321	8
0	13277	3122.37312767856	7
0	13283	3123.134973593881	6
0	13288	3123.281096430776	5
0	13293	3124.475287401246	4
0	13301	3125.710963879861	3
0	13306	3126.367336003598	2
0	13317	3128.686010812247	1
0	13321	3129.5679465366	2
0	13324	3130.331181492423	1
0	13331	3132.940196910612	0
0	13351	3135.059931515029	1
0	13353	3135.304113493641	2
0	13355	3135.371886978384	3
0	13361	3137.021668650497	4
0	13364	3137.327853233683	3
0	13370	3138.099721296667	2
0	13376	3138.163697456661	3
0	13378	3138.679569981167	4
0	13380	3139.691150947559	3
0	13385	3139.97871828869	2
0	13390	3141.186461025774	1
0	13395	3141.226834097692	0
0	13459	3159.993276962958	1
0	13461	3160.238301658282	2
0	13465	3163.187526932195	3
0	13467	3163.429940263939	4
0	13468	3165.079596983464	3
0	13473	3165.094311695997	2
0	13478	3166.55715784309	1
0	13484	3169.046859267682	2
0	13487	3170.326340660672	1
0	13491	3171.221220807233	2
0	13493	3171.735575872285	3
0	13496	3174.509502344422	2
0	13500	3175.557153331956	3
0	13505	3176.634407965974	2
0	13511	3178.235059611777	3
0	13516	3179.25276137722	4
0	13518	3179.772590989767	3
0	13524	3181.812898611685	2
0	13529	3183.003661670063	1
0	13535	3183.014082734753	2
0	13536	3183.038957246684	1
0	13543	3189.207654133837	0
0	13560	3194.215416785173	1
0	13561	3194.991446211561	0
0	13581	3198.365798501844	1
0	13583	3199.796419871166	2
0	13584	3200.405351285434	1
0	13590	3201.093191382902	0
0	13598	3202.562231875947	1
0	13600	3203.466060771101	2
0	13601	3203.471344384531	1
0	13607	3204.557244612124	0
0	13613	3205.99727310449	1
0	13615	3206.642825038766	0
0	13630	3209.667184274199	1
0	13631	3209.971369239383	0
0	13649	3214.614391898712	1
0	13653	3215.624389313434	2
0	13654	3216.280772782184	1
0	13659	3217.10737561637	0
0	13680	3218.976281569018	1
0	13681	3219.825685953822	0
0	13703	3227.448141582108	1
0	13708	3229.338396998195	2
0	13710	3229.460434812864	3
0	13711	3230.000253217045	2
0	13716	3230.198992871532	1
0	13721	3230.869137389413	0
0	13725	3232.162526924213	1
0	13729	3233.098721784907	0
0	13750	3235.477856524584	1
0	13753	3237.364713083559	0
0	13769	3239.980699145431	1
0	13771	3240.134149642807	2
0	13774	3243.010294419334	1
0	13782	3243.824983719733	0
0	13795	3246.37626385005	1
0	13796	3246.987741092884	0
0	13847	3258.820454184516	1
0	13853	3260.521991597685	0
0	13910	3275.864999282852	1
0	13911	3276.832725519082	0
0	13923	3279.59390229845	1
0	13926	3280.316683761634	2
0	13927	3280.677566071133	1
0	13932	3281.580993285331	0
0	13938	3281.619256393093	1
0	13940	3281.761354491419	2
0	13941	3281.967756907579	1
0	13947	3285.700467156229	0
0	13985	3293.614358775412	1
0	13988	3298.978818440004	0
0	14000	3302.921932236793	1
0	14001	3303.842196633013	0
0	14022	3312.879271763224	1
0	14023	3313.314861206705	0
0	14052	3323.950057091881	1
0	14055	3325.24269128806	2
0	14057	3325.246377010704	3
0	14058	3326.058323874604	2
0	14063	3327.368672530996	1
0	14069	3330.339717062691	0
0	14106	3338.718206077768	1
0	14108	3338.956076189217	2
0	14109	3339.071741647185	1
0	14114	3339.236181304884	0
0	14152	3355.100893549482	1
0	14156	3357.073183905086	0
0	14162	3357.735500160077	1
0	14163	3357.746063642055	0
0	14169	3357.918454601547	1
0	14170	3358.106092450073	0
0	14182	3360.327402350441	1
0	14185	3360.991986561585	2
0	14190	3361.518937067117	1
0	14200	3364.301550011534	0
0	14206	3364.91575029371	1
0	14209	3365.33155971963	0
0	14216	3366.258161872919	1
0	14217	3367.591598563228	0
0	14223	3368.818817251555	1
0	14225	3369.129594677139	2
0	14226	3369.61211193241	1
0	14230	3369.718467407921	2
0	14232	3369.808794041831	3
0	14237	3372.976908894756	2
0	14241	3373.174329378097	3
0	14245	3374.230770577138	4
0	14246	3376.155181329358	3
0	14254	3378.176472035857	4
0	14255	3378.344043446714	3
0	14259	3378.420156049308	4
0	14263	3381.257759890307	3
0	14269	3381.367037386678	4
0	14272	3383.600201686713	3
0	14277	3384.15552052952	2
0	14282	3385.186475381651	1
0	14286	3386.1431284931	2
0	14288	3386.361716836982	3
0	14291	3386.706914163621	2
0	14299	3389.329128153428	1
0	14306	3390.175821847799	2
0	14310	3391.677955244649	1
0	14316	3393.788075094118	2
0	14317	3393.919777667169	1
0	14323	3394.011017212549	2
0	14325	3396.030582934254	3
0	14327	3396.075380597483	4
0	14328	3396.568757584217	3
0	14333	3399.834622551502	2
0	14341	3401.710296593348	1
0	14350	3403.685792896613	0
0	14354	3405.512910270288	1
0	14358	3408.390147832396	0
0	14382	3410.761918893178	1
0	14384	3412.211098613971	0
0	14396	3413.317373092085	1
0	14397	3413.319679893753	0
0	14408	3414.431732516834	1
0	14409	3415.041747469787	0
0	14423	3417.804557503764	1
0	14432	3421.92635916993	2
0	14437	3422.896075991734	3
0	14439	3423.304925248807	4
0	14442	3424.174897981438	5
0	14443	3424.267477603552	4
0	14449	3429.041816237931	3
0	14457	3432.725359240598	2
0	14463	3433.540925784218	3
0	14465	3433.673976512356	2
0	14471	3435.2758303046	1
0	14476	3435.788220704764	0
0	14490	3437.753427106566	1
0	14491	3437.93064799566	0
0	14497	3438.741894225884	1
0	14499	3439.688099364387	0
0	14509	3442.807652854247	1
0	14510	3443.63022879641	0
0	14516	3445.376862763834	1
0	14519	3448.795162928454	0
0	14535	3450.406083331346	1
0	14536	3451.06212296418	0
0	14556	3457.02240494459	1
0	14557	3457.491712317711	0
0	14574	3460.351347953549	1
0	14578	3463.986481431824	0
0	14595	3465.361220223892	1
0	14596	3466.19103405532	0
0	14616	3469.656755117749	1
0	14617	3471.201224308069	0
0	14629	3475.433826508651	1
0	14631	3475.47973615093	2
0	14633	3476.372655615895	3
0	14635	3476.859206022176	4
0	14636	3477.944900847178	3
0	14641	3478.68821168748	2
0	14648	3478.781988795058	3
0	14649	3479.038737884123	2
0	14657	3479.994488399279	3
0	14660	3480.964959417957	4
0	14662	3481.402421298619	5
0	14664	3481.554971469718	4
0	14674	3483.623415349378	3
0	14679	3483.760703734739	2
0	14684	3484.109720531399	1
0	14695	3485.841705581893	2
0	14696	3486.5882512066	1
0	14702	3486.611106873364	2
0	14704	3486.695545882042	3
0	14705	3487.744883001145	2
0	14709	3488.835759704379	3
0	14712	3489.503168366791	2
0	14717	3491.316912374375	1
0	14723	3491.713534484886	2
0	14725	3491.740934314448	3
0	14728	3492.162418299906	2
0	14733	3493.217681087165	1
0	14737	3495.095621063581	2
0	14740	3495.866136962641	1
0	14745	3499.785048054626	0
0	14749	3500.015566045763	1
0	14753	3500.83524234386	0
0	14787	3507.782179303092	1
0	14791	3509.991700562748	0
0	14811	3513.276120941321	1
0	14813	3514.05025939246	2
0	14814	3514.377749750278	1
0	14820	3514.868466575791	0
0	14829	3515.384995429296	1
0	14836	3516.85302686527	0
0	14861	3522.695731519659	1
0	14863	3524.219308768678	0
0	14884	3527.303473327678	1
0	14888	3529.763749664548	2
0	14889	3530.336809876667	1
0	14894	3530.424396204317	0
0	14911	3532.169506184611	1
0	14913	3532.329367697063	2
0	14915	3532.459024311296	3
0	14922	3535.87075938475	4
0	14923	3535.960714268364	3
0	14930	3536.390975420466	4
0	14932	3536.958897483015	5
0	14933	3536.972589115637	4
0	14939	3537.492852817687	3
0	14945	3538.785823887631	2
0	14950	3538.915713850839	1
0	14956	3540.191757558305	2
0	14958	3540.371731068948	1
0	14963	3540.473579152473	0
0	14967	3540.847283950548	1
0	14970	3543.201369890693	0
0	14979	3545.144644177132	1
0	14989	3548.883773598328	2
0	14991	3552.249761063278	1
0	14996	3552.553175188895	0
0	15030	3561.34643920395	1
0	15035	3565.939473346745	2
0	15037	3570.293294485867	3
0	15039	3570.93654489777	4
0	15040	3571.757644527113	3
0	15045	3572.963660539235	2
0	15050	3572.98873697798	1
0	15057	3573.370279868922	2
0	15058	3573.396029173252	1
0	15064	3574.097210956561	0
0	15134	3593.122963065854	1
0	15136	3594.168046973529	2
0	15140	3595.17457823045	3
0	15141	3597.269087294348	2
0	15146	3597.337578814656	1
0	15156	3598.91224123766	0
0	15180	3604.392990139163	1
0	15185	3605.211978070872	2
0	15186	3605.375323280583	1
0	15191	3606.158415846602	0
0	15270	3621.271887377327	1
0	15272	3621.769819607494	2
0	15274	3621.930290088486	3
0	15277	3623.35656091174	2
0	15282	3623.51654857617	1
0	15287	3623.575054545511	0
0	15311	3629.173594360627	1
0	15312	3629.395708918585	0
0	15343	3637.633077757165	1
0	15344	3637.885540832759	0
0	15425	3662.812191767809	1
0	15430	3663.44928914166	0
0	15450	3665.989260880707	1
0	15453	3667.958018071844	0
0	15490	3684.250093315161	1
0	15493	3685.373798408629	0
0	15514	3693.481560473034	1
0	15516	3693.584564435633	2
0	15517	3693.908676038918	1
0	15522	3694.153233560705	0
0	15590	3711.020055507249	1
0	15591	3711.420656992068	0
0	15598	3711.818921193885	1
0	15599	3712.684531323075	0
0	15630	3719.995013330941	1
0	15631	3720.426847719414	0
0	15658	3724.915771525876	1
0	15661	3725.597861682544	0
0	15697	3738.827436113197	1
0	15702	3742.222963741035	0
0	15711	3742.559215968054	1
0	15721	3745.646188231159	0
0	15733	3750.644509204358	1
0	15735	3750.872377280339	2
0	15737	3752.522655397127	3
0	15739	3753.769707424079	4
0	15740	3755.750939886465	3
0	15746	3756.064668059545	4
0	15747	3756.311985078208	3
0	15752	3757.084844663643	2
0	15758	3757.677447135384	3
0	15760	3758.612634842561	2
0	15767	3759.5633230105	1
0	15772	3760.32365695603	0
0	15780	3760.558983236292	1
0	15781	3762.54281836737	0
0	15795	3763.390541898893	1
0	15799	3764.630595408847	0
0	15807	3765.138066173125	1
0	15809	3765.928518215433	0
0	15821	3766.937728829028	1
0	15822	3766.993385562675	0
0	15828	3767.114998493438	1
0	15830	3767.119197869433	2
0	15831	3768.156244646072	1
0	15837	3769.554838925906	2
0	15841	3769.760935750019	3
0	15842	3770.36780254363	2
0	15846	3771.841204207758	3
0	15848	3772.749169167976	4
0	15850	3773.774948248162	5
0	15854	3774.683722215175	4
0	15860	3775.152712061007	3
0	15865	3775.572401339625	2
0	15873	3776.53792508495	3
0	15875	3777.747689076333	2
0	15879	3778.399948884991	3
0	15885	3779.359967047564	2
0	15890	3779.990096860286	1
0	15896	3781.34057626525	2
0	15897	3781.583078649424	1
0	15904	3784.593988556484	0
0	15915	3784.915748272188	1
0	15918	3786.193425245831	2
0	15920	3786.232451228274	3
0	15923	3788.019246799471	2
0	15927	3788.025497663716	3
0	15930	3789.463612435803	2
0	15935	3790.12521471069	1
0	15940	3791.117382427098	0
0	15949	3792.589797390591	1
0	15951	3794.337332030363	2
0	15952	3794.517715730635	1
0	15957	3794.705314683491	0
0	15990	3807.218451326229	1
0	15992	3808.348274285395	2
0	15994	3808.835114153153	3
0	15996	3809.135637731678	4
0	15999	3809.216266365102	3
0	16004	3809.350924415072	2
0	16011	3809.7693161911	1
0	16020	3813.318901532378	2
0	16021	3813.705439249634	1
0	16026	3814.127527378596	0
0	16044	3817.868773604227	1
0	16046	3818.041476600119	2
0	16047	3818.632551986237	1
0	16052	3818.769320857491	0
0	16063	3819.852498268537	1
0	16064	3820.535979913605	0
0	16074	3824.456807724255	1
0	16076	3824.506335985218	2
0	16080	3829.818787861733	1
0	16087	3830.361704706733	2
0	16088	3831.635666774848	1
0	16094	3832.472229412857	0
0	16120	3839.011896326523	1
0	16121	3841.800577433512	0
0	16133	3844.278261462568	1
0	16138	3847.00417121699	0
0	16150	3848.178593796715	1
0	16152	3848.487093344152	2
0	16154	3848.866146381775	1
0	16160	3850.005385962984	0
0	16198	3862.606596142675	1
0	16203	3864.776585521177	0
0	16209	3865.295383691959	1
0	16211	3866.474277110326	2
0	16213	3868.511321155365	1
0	16219	3869.915103631197	2
0	16221	3871.34238277372	1
0	16227	3871.835800788404	2
0	16231	3874.340464701049	1
0	16236	3874.396426341915	0
0	16267	3879.195969324405	1
0	16268	3879.769186317136	0
0	16322	3887.202854060665	1
0	16326	3888.785625386209	2
0	16329	3891.851404292835	1
0	16336	3898.70293174539	0
0	16340	3899.924722474784	1
0	16342	3900.296768077824	2
0	16348	3901.367450678796	1
0	16354	3901.447500377297	2
0	16355	3901.494113143228	1
0	16361	3904.597919296946	2
0	16362	3904.6587151092	1
0	16368	3906.350018010896	2
0	16370	3907.387220681554	1
0	16375	3907.998427732135	0
0	16381	3908.936657277967	1
0	16384	3909.432136695479	2
0	16385	3910.791657937351	1
0	16393	3912.84483126775	2
0	16394	3913.495821795196	1
0	16399	3913.636411227352	0
0	16409	3915.648573950237	1
0	16410	3915.859078510671	0
0	16435	3921.837622522842	1
0	16437	3922.100023864487	2
0	16440	3923.253403312516	1
0	16447	3923.597567120865	0
0	16464	3926.784912572394	1
0	16468	3926.986842552914	2
0	16470	3927.286749198745	3
0	16473	3928.186490783632	2
0	16479	3928.568901844896	3
0	16480	3928.832202537115	2
0	16486	3929.008028346697	3
0	16488	3929.169115441918	4
0	16491	3929.932661485452	5
0	16492	3930.059002057426	4
0	16500	3930.977288545761	5
0	16502	3931.127773701871	6
0	16504	3931.929924745576	7
0	16506	3932.237038468844	6
0	16512	3933.757805010898	5
0	16517	3933.911035538215	4
0	16523	3934.672001954836	3
0	16529	3934.964163260982	4
0	16531	3935.743786584015	5
0	16535	3936.601397534804	6
0	16543	3941.728458915305	7
0	16545	3942.134196985066	8
0	16546	3942.958612515909	7
0	16552	3944.831863244004	6
0	16558	3945.482055045157	5
0	16564	3945.721040629018	6
0	16569	3947.577775189597	7
0	16571	3947.800318938012	8
0	16572	3948.4697977435	7
0	16577	3948.921002526606	6
0	16584	3949.507624082864	7
0	16585	3950.197435843609	6
0	16591	3950.46745401408	7
0	16592	3950.730943464412	6
0	16598	3952.196617998865	7
0	16603	3955.126047031448	6
0	16609	3956.229351752555	7
0	16610	3956.349281234438	6
0	16614	3956.372646779437	7
0	16620	3957.531839100901	8
0	16623	3961.177112308432	7
0	16630	3961.92498701535	8
0	16631	3962.027638287017	7
0	16636	3962.258481800056	6
0	16643	3964.030347080942	5
0	16648	3964.040642556573	4
0	16654	3964.99724520066	3
0	16660	3965.608764202808	2
0	16669	3966.181379879838	1
0	16674	3966.424259538331	0
0	16687	3969.362540909528	1
0	16689	3970.651397383277	0
0	16711	3973.65086972316	1
0	16713	3974.733273751774	2
0	16715	3974.773391806665	3
0	16717	3975.012306999558	4
0	16723	3975.882532637185	5
0	16724	3976.283098949016	4
0	16729	3976.351006544476	3
0	16735	3976.430279696235	4
0	16736	3976.841701257193	3
0	16740	3977.083845681609	4
0	16745	3979.10178183788	5
0	16746	3980.5651293992	4
0	16755	3981.768396568572	5
0	16756	3982.153807574616	4
0	16761	3982.192447776816	3
0	16767	3983.736756806391	4
0	16770	3984.652747059699	3
0	16775	3985.300453335648	2
0	16782	3986.687357730973	1
0	16788	3987.528666162028	0
0	16837	3996.329120032113	1
0	16841	3998.08861564507	2
0	16846	4001.071423279281	1
0	16851	4001.082906450855	0
0	16857	4001.22949907472	1
0	16858	4002.051457781379	0
0	16862	4002.267367715681	1
0	16870	4004.951036847947	2
0	16872	4004.965857481599	3
0	16874	4005.140605370523	2
0	16881	4006.065812078668	3
0	16883	4006.189239673125	4
0	16884	4006.201787297972	3
0	16892	4007.205124869324	4
0	16894	4007.234435243247	5
0	16896	4007.586127334412	6
0	16898	4008.394379185932	7
0	16901	4012.164203443076	6
0	16905	4014.115221831463	7
0	16909	4014.958859566471	8
0	16910	4015.890604051841	7
0	16916	4017.243225706349	8
0	16922	4019.17388162624	9
0	16923	4019.322780645724	8
0	16927	4019.327261228113	9
0	16930	4020.641174212073	8
0	16935	4021.584045406449	7
0	16939	4025.335732819782	8
0	16942	4028.011919084541	7
0	16946	4028.50873390785	8
0	16948	4029.471029554795	9
0	16953	4030.37347480492	8
0	16961	4031.278165978542	7
0	16967	4031.617210001287	8
0	16969	4031.911270998841	9
0	16971	4033.717167076232	8
0	16978	4034.419670467567	9
0	16979	4034.859497011003	8
0	16985	4036.199159983645	7
0	16991	4036.222221251137	8
0	16993	4037.170612529017	7
0	16999	4037.324601139171	8
0	17004	4039.519353361992	9
0	17007	4042.716206892965	8
0	17013	4043.553390528198	7
0	17019	4043.823587292404	8
0	17020	4044.052236401667	7
0	17027	4044.488286119327	8
0	17028	4045.191244960712	7
0	17034	4045.414132849301	8
0	17035	4045.443276281604	7
0	17039	4045.731744395521	8
0	17043	4046.870548944549	9
0	17045	4048.597932774273	8
0	17051	4049.03623845816	7
0	17057	4049.205065596655	8
0	17060	4050.418435413359	7
0	17068	4051.155164652234	6
0	17075	4051.570948272837	7
0	17076	4052.972015767816	6
0	17083	4054.077554900405	5
0	17089	4054.597720889127	4
0	17095	4055.272328122011	5
0	17097	4055.413154153468	6
0	17098	4056.375784900523	5
0	17106	4058.83374565454	6
0	17108	4059.412057268958	7
0	17109	4060.338690927994	6
0	17115	4062.248565279473	7
0	17117	4062.935056334108	8
0	17120	4063.780536533171	7
0	17125	4063.865057097542	6
0	17130	4065.827891252618	5
0	17138	4066.829543302106	6
0	17139	4067.537432428526	5
0	17144	4067.827750510724	4
0	17151	4068.382286715849	3
0	17157	4068.47203717404	4
0	17159	4069.069614920852	3
0	17169	4070.626935991025	2
0	17175	4071.139962224709	1
0	17180	4071.573263900974	0
0	17186	4071.810648410595	1
0	17189	4072.891650402273	0
0	17195	4073.248155684487	1
0	17197	4076.015693926478	2
0	17200	4077.214506934882	1
0	17204	4078.460214239989	2
0	17207	4079.574745382247	1
0	17213	4080.027742047629	0
0	17224	4080.943644319498	1
0	17227	4081.266949247463	0
0	17238	4081.731425648326	1
0	17239	4081.737403159944	0
0	17255	4083.838090597986	1
0	17259	4084.052656267688	2
0	17261	4084.067602591839	3
0	17269	4086.436886412386	4
0	17271	4088.785320980493	5
0	17272	4088.82182193417	4
0	17279	4089.266974212846	5
0	17281	4090.663375276905	6
0	17282	4091.043828025744	5
0	17288	4091.251807119858	4
0	17293	4091.681784027954	3
0	17298	4092.190780026786	2
0	17302	4093.601720502344	3
0	17306	4095.209702409337	2
0	17311	4095.501123311462	1
0	17318	4097.031033781802	0
0	17322	4097.462727377346	1
0	17325	4099.917292006683	0
0	17343	4102.840555371812	1
0	17347	4104.024176398759	0
0	17368	4107.86262616984	1
0	17371	4110.843091083965	0
0	17394	4116.632000264395	1
0	17395	4117.100104780791	0
0	17408	4122.802709549061	1
0	17411	4125.698510760146	0
0	17417	4126.11563138599	1
0	17418	4126.933839501992	0
0	17424	4126.993352498862	1
0	17426	4127.331312216477	2
0	17432	4129.422062454717	3
0	17433	4131.786177974864	2
0	17440	4132.871851042213	3
0	17441	4135.132892422398	2
0	17449	4135.77624821806	3
0	17451	4137.191287951882	4
0	17453	4137.30887629708	5
0	17454	4137.664907487791	4
0	17460	4138.689740411747	3
0	17465	4140.876006809828	2
0	17470	4141.278087234657	1
0	17476	4142.968342279351	0
0	17500	4146.416187330928	1
0	17503	4146.761365052511	0
0	17509	4147.094443422682	1
0	17511	4148.149016272301	0
0	17523	4149.470662682297	1
0	17524	4151.337444493496	0
0	17530	4151.976275730307	1
0	17531	4152.615015412262	0
0	17542	4154.604065229436	1
0	17545	4155.903840507874	0
0	17562	4158.783711385542	1
0	17568	4160.846540665729	2
0	17570	4162.065759771167	3
0	17572	4166.494380405507	4
0	17576	4172.153610841131	5
0	17577	4172.581469295138	4
0	17582	4173.364305908136	3
0	17587	4173.391984798321	2
0	17592	4175.013133256764	1
0	17598	4176.532555668332	2
0	17601	4177.378960100292	1
0	17608	4179.177435241066	0
0	17612	4179.352733922597	1
0	17615	4180.701304834221	0
0	17634	4182.680225684716	1
0	17636	4182.712021587906	2
0	17641	4183.314901130396	1
0	17647	4183.496126523061	0
0	17673	4193.719679549799	1
0	17678	4197.751486443736	0
0	17689	4200.074485605808	1
0	17692	4201.13653915982	0
0	17715	4205.310362155495	1
0	17719	4206.191494133899	0
0	17742	4211.835459505935	1
0	17746	4213.33153196045	2
0	17747	4213.75377475941	1
0	17752	4214.316966081273	0
0	17761	4216.343910177543	1
0	17763	4216.926438875575	2
0	17766	4217.243676749858	1
0	17771	4217.531836015881	0
0	17791	4222.37325533507	1
0	17793	4222.702475323502	2
0	17796	4224.874527870342	1
0	17801	4225.41833318028	0
0	17839	4232.292092000909	1
0	17840	4234.366302028942	0
0	17846	4234.883180959685	1
0	17848	4235.643551047431	0
0	17865	4239.258347783717	1
0	17868	4241.924518649626	0
0	17879	4242.256048932757	1
0	17882	4242.979953188404	0
0	17889	4243.487494064782	1
0	17891	4243.778690661772	2
0	17893	4244.788627166256	1
0	17899	4245.755791669912	0
0	17923	4249.672428174648	1
0	17926	4251.006161807501	0
0	17936	4252.125068799546	1
0	17940	4252.468173393992	2
0	17942	4252.827078397173	3
0	17945	4254.247516008703	2
0	17950	4254.323103454705	1
0	17955	4255.151121454855	0
0	17979	4261.599884123992	1
0	17982	4261.726078505591	0
0	17991	4263.65521123978	1
0	17992	4263.655246702776	0
0	17996	4264.214751349482	1
0	18000	4264.557375488469	2
0	18003	4265.341128088935	3
0	18009	4266.639071324983	2
0	18016	4267.72133253504	1
0	18022	4268.615270796579	0
0	18041	4270.071796355987	1
0	18043	4270.492419908651	2
0	18046	4270.812026259918	1
0	18052	4271.132183801354	2
0	18053	4271.273970903392	1
0	18060	4274.456234132829	0
0	18071	4275.658134263018	1
0	18072	4275.799464653033	0
[...]
4	114028	27780.747253871307	79.302061368676
4	114039	27787.966370506314	71.64767641742
4	114058	27791.026618929515	74.625386737403
4	114064	27793.187443460529	76.724016924089
4	114069	27793.269487395279	74.631102544287
4	114076	27794.555006537316	73.160570624083
4	114092	27797.218657017266	75.579615619862
4	114129	27804.303192113359	78.008479018385
4	114149	27808.390727429979	74.95574632769
4	114162	27811.354164591093	36.884279366249
4	114169	27813.610404761633	39.116994514212
4	114190	27818.167764516923	41.021792379098
4	114259	27829.675074729508	39.944544114934
4	114267	27831.963433276928	36.722160499769
4	114292	27836.553438600927	41.058047212229
4	114304	27837.655219058012	37.290146991461
4	114330	27840.340309534542	38.566672728092
4	114343	27842.362344139272	30.140626066352
4	114350	27843.883083497906	27.010293264801
4	114363	27847.419074031606	30.398362273136
4	114372	27849.848252398572	31.767092393307
4	114377	27851.389754133978	30.703962763665
4	114390	27854.036065758029	31.907901469376
4	114403	27857.97013962776	31.974337534287
4	114415	27859.961008026776	26.90897412196
4	114422	27860.423628931523	26.531753213203
4	114437	27862.68993072002	26.987440678001
4	114449	27865.262513289884	27.227131382584
4	114496	27873.35365762962	27.012157006592
4	114502	27874.192253049369	26.126097974022
4	114507	27874.20847922982	25.720675727728
4	114516	27879.533164430735	26.862284535674
4	114521	27879.75035848957	26.876584505873
4	114531	27882.420506549433	22.880592905757
4	114549	27884.408508000031	22.736064091364
4	114563	27887.833044359132	25.807313617921
4	114695	27921.199439396927	58.047026706557
4	114706	27922.493021561752	53.365563322565
4	114711	27922.70135309652	53.172580352068
4	114718	27924.820223890907	52.307192111869
4	114729	27925.896245156596	49.14698409296
4	114735	27927.298707443776	47.290393004731
4	114747	27930.56762182764	47.968545125369
4	114758	27933.196388805927	49.861951937171
4	114763	27934.473939761758	50.294826408644
4	114772	27937.760853541309	50.311116481078
4	114791	27938.675735250637	44.322634953075
4	114796	27938.890948692858	40.764340630278
4	114803	27940.145647771693	35.013382104138
4	114809	27941.491994575656	35.3502075128
4	114817	27943.5226481748	34.28166978912
4	114824	27945.867511776578	34.7663913558
4	114841	27949.337068148946	37.307747877383
4	114859	27951.042363032505	30.436533674562
4	114888	27961.962519399713	41.038098030152
4	114893	27962.103410013947	33.468223997374
4	114902	27964.205551502577	26.093036603645
4	114925	27968.002980166065	25.43804699987
4	114937	27970.843005547762	14.201867581131
4	114943	27974.169625995868	17.390580936528
4	114948	27974.342782531523	17.209779923599
4	114955	27977.36734270487	19.011210952555
4	114965	27980.564295908883	16.780681899795
4	114984	27984.08970627337	0.614838033237
4	114988	27985.701692291241	1.989759965552
4	115000	27990.532983821199	1.793100236635
4	115013	27996.740307572788	6.292068099321
4	115022	28001.912295550914	5.755094901773
4	115032	28003.531358332238	6.621410987521
4	115045	28007.387813308216	2.763472895432
4	115050	28008.048497192372	1.39114468566
4	115072	28015.642661681022	2.320051817406
4	115082	28016.071332449915	2.326798776304
4	115102	28026.369634272344	11.338814486573
4	115148	28033.621877531374	17.256415053366
4	115156	28036.086507146559	18.237658716221
4	115168	28037.591589080711	16.280288595032
4	115249	28062.230426707718	40.16968133831
4	115254	28062.443229730387	34.2115327784
4	115259	28062.589487031498	27.539066184164
4	115264	28064.280453435128	24.580638348956
4	115269	28064.877977454544	23.68576115483
4	115274	28065.904644168276	22.688643582607
4	115279	28067.368557384002	20.643386033525
4	115286	28069.463222908333	18.227699469922
4	115305	28076.855249716932	16.783717733204
4	115322	28079.908595286256	8.681241772278
4	115328	28081.347798296078	5.125948119639
4	115332	28082.962074141913	4.408447731265
4	115367	28091.869548518777	0.02893401072
4	115382	28093.447729181099	0.405197517455
4	115411	28101.117959533544	3.755437483086
4	115417	28101.765856885895	2.037551087182
4	115422	28105.350124193159	4.250564150616
4	115437	28108.001013121416	0.746823690209
4	115484	28118.549345897353	2.860000486525
4	115502	28123.499527046074	0.288190281661
4	115509	28123.868887078831	0.127105988759
4	115517	28128.275367889521	1.073333833275
4	115536	28150.585129361334	2.447026073145
4	115561	28158.196089406794	4.194825585027
4	115566	28161.442290611617	5.525263876676
4	115570	28162.677459567038	6.615381519984
4	115608	28171.522852042515	6.274724930155
4	115619	28173.492127272675	5.866334917725
4	115637	28180.887744582516	12.518645906845
4	115648	28182.70256202109	11.161828898003
4	115655	28184.536910668638	12.635087490945
4	115669	28187.218206054844	11.768793114201
4	115679	28188.014462196085	10.686571180704
4	115689	28192.542079347112	3.347061828199
4	115704	28197.036197451912	6.816372966903
4	115744	28203.01721333195	7.458082877865
4	115751	28203.633459435572	8.017060297755
4	115763	28209.28720497999	9.960185988964
4	115777	28211.672357209789	10.944663724045
4	115801	28216.115885495941	15.005296342761
4	115813	28218.956093225389	17.827903694737
4	115836	28222.293415006575	19.634117916147
4	115864	28229.041942766108	17.1560908595
4	115869	28229.735094033113	15.119579006872
4	115885	28234.665371132953	17.145026285106
4	115929	28244.60223975661	22.658717194282
4	115968	28249.065912268609	22.401825968437
4	115975	28250.583857480504	18.752980681293
4	115987	28254.742290393192	19.201467183033
4	115992	28256.047957472126	11.082533924729
4	115997	28256.656462976603	10.703525856713
4	116006	28258.994422244391	10.55182206487
4	116031	28271.744805980788	4.974344937868
4	116036	28273.344488844859	3.237147311284
4	116048	28277.258318836537	6.748011457935
4	116135	28292.480820123073	6.71963148326
4	116234	28318.895783310047	20.067232945059
4	116277	28326.437776030521	19.459699497819
4	116281	28326.791925115668	9.493034363742
4	116333	28339.497424955272	0.885976080894
4	116343	28340.157962600152	0.770316344513
4	116367	28347.077064187201	0.99026419954
4	116392	28357.976113229066	2.11933849849
4	116412	28370.296635899829	2.948992012055
4	116534	28395.13891195354	10.629446249825
4	116540	28395.940877492216	10.749030824573
4	116544	28397.697712777793	2.710874588476
4	116552	28400.249114814906	2.214645559735
4	116567	28407.681467108461	0.246005277126
4	116584	28410.887340178866	0.702958233288
4	116603	28417.90894715604	3.166575791203
4	116608	28418.874815848053	1.594844254575
4	116626	28422.601698502162	1.344711086702
4	116840	28474.581739873509	42.672075512976
4	116845	28474.612862879726	33.723814114612
4	116855	28477.479924579139	34.064668477781
4	116871	28481.239747222659	34.589404154536
4	116887	28483.155415423338	32.614069272228
4	116894	28483.564413895694	23.346218109699
4	116912	28488.738662793756	22.635986127616
4	116933	28492.594759723006	23.92931110581
4	116938	28493.435043076213	24.498800024522
4	116943	28494.833323318162	23.141683430436
4	116957	28500.250843101687	24.738573833894
4	117020	28508.774810096659	22.248425979328
4	117038	28511.239616919668	9.64546159286
4	117062	28516.379711564824	14.727262793335
4	117067	28516.645797142809	13.451475359881
4	117072	28518.459523072481	13.901275738409
4	117077	28519.545365294104	14.722559771021
4	117082	28520.69245404243	14.103579812557
4	117089	28524.28306549048	17.086520544041
4	117094	28525.948523830197	18.004132130673
4	117103	28532.723052514675	23.59221055136
4	117109	28535.190707986029	23.48179462855
4	117116	28537.3806287445	25.457440897642
4	117121	28537.495484098462	24.954834855874
4	117126	28538.996764838149	15.231349528993
4	117131	28540.015601529116	10.235219627605
4	117138	28542.473362386256	7.047611477507
4	117167	28553.335544899608	9.043142032102
4	117239	28569.131593349969	22.499080923928
4	117244	28569.248692476677	15.83650337663
4	117252	28570.297977094401	10.213008382419
4	117261	28572.410024420052	10.361357394965
4	117269	28577.920423901522	4.054246143109
4	117281	28581.477885260024	3.309702630472
4	117304	28585.566889414565	2.915532287351
4	117342	28593.037901985176	7.379721277173
4	117352	28599.457484427409	12.770069038237
4	117388	28603.913430340715	16.8823752072
4	117395	28604.181938829769	16.529857857525
4	117405	28604.617655131483	16.849855452836
4	117413	28607.630137285613	16.746891146922
4	117436	28610.257579098438	18.330464600392
4	117453	28613.357768657679	13.072859874116
4	117463	28615.187354419425	7.387078725147
4	117476	28621.894670958894	13.877345971803
4	117495	28623.451408408782	13.772302303212
4	117505	28624.475998968264	11.669694006212
4	117515	28625.043878008258	11.229349692658
4	117520	28627.104221448218	11.293829551073
4	117525	28627.935466877707	8.744294845302
4	117532	28628.477554551234	8.274182942647
4	117539	28631.008367674473	6.927961921907
4	117561	28636.605593683665	4.963707475564
4	117587	28639.337410368164	2.807414317346
4	117596	28644.342722534034	5.253257110192
4	117609	28645.952993709152	6.494300324914
4	117621	28649.131081200834	0.79051728376
4	117645	28652.63900735284	2.440511047343
4	117750	28688.610111162739	30.847827465496
4	117762	28691.623378998111	32.236482370531
4	117771	28691.819447554853	32.135365071363
4	117798	28694.301098396231	34.598851472997
4	117803	28694.546611883698	23.967476550788
4	117818	28697.358023867983	13.842402409496
4	117843	28702.85381586958	11.124349237742
4	117853	28704.840540312558	9.755432840325
4	117873	28707.833424912145	11.434359689064
4	117883	28709.015211947333	7.340640494958
4	117938	28732.967809833448	0.635566411374
4	117957	28738.566164458466	2.418869188055
4	117964	28740.615707934195	4.087169113296
4	118010	28755.093716682837	0.655838555703
4	118037	28764.846362558854	1.968345064719
4	118066	28778.229764219681	1.8499963428
4	118117	28802.608605438757	1.515411753533
4	118138	28810.02543444069	0.907298001264
4	118150	28814.314423281339	1.108514273853
4	118159	28819.041849769958	5.68521161922
4	118170	28820.397560633176	6.371203499904
4	118177	28822.011704783228	7.004806348657
4	118186	28824.868046674637	2.94006310553
4	118211	28830.649809107712	3.032330278964
4	118219	28831.807710742172	0.329551469377
4	118340	28870.962597691131	23.971375023799
4	118345	28871.190979390454	23.43612170314
4	118353	28872.694682445365	15.341077263319
4	118371	28875.90657190285	3.433738424624
4	118393	28878.996543511441	5.797907540407
4	118405	28881.805735138783	8.287099666087
4	118441	28889.634040176681	15.981282841019
4	118447	28891.430357610431	16.452973658797
4	118453	28892.235145310683	14.782368162572
4	118466	28898.036174733376	19.535285141139
4	118488	28901.592602527092	15.547562689154
4	118493	28903.016589808566	15.393775377815
4	118500	28903.772649385942	6.638533373816
4	118504	28904.753269381978	1.603508089797
4	118528	28910.877101563303	1.133866118781
4	118544	28918.171219627748	0.69481416991
4	118551	28918.815280745774	0.00583858588
4	118568	28925.464657667758	6.602376767227
4	118590	28931.243018589121	10.715643897616
4	118597	28934.65893079243	10.288801322515
4	118612	28939.065091768744	10.836327248959
4	118619	28941.02122514237	11.345459365216
4	118629	28943.557434962519	7.472578070249
4	118639	28946.397974881908	2.635417013144
4	118650	28951.095153792336	6.860330618411
4	118655	28951.217384472383	1.509170578477
4	118662	28952.690353974554	2.817043376362
4	118735	28964.828161855576	6.009195900899
4	118744	28966.288470474911	2.557584973224
4	118776	28971.417679578464	2.924938008641
4	118890	28993.811878338263	17.851692956977
4	118947	29005.29159040179	24.293798287509
4	118962	29009.222996605334	18.308413400611
4	118983	29016.063773445496	20.816963319944
4	118988	29017.234463933595	21.661525217448
4	118993	29019.74718548635	18.684173541485
4	119002	29020.580449039766	16.509164385078
4	119015	29027.240157138306	14.413187017862
4	119020	29028.428265893514	7.865386885277
4	119032	29034.938389832394	11.803234943546
4	119116	29055.771327840459	26.759054665413
4	119143	29060.449227546541	28.499233578566
4	119157	29062.045990850163	23.944607022001
4	119164	29064.886714045667	25.869827244191
4	119185	29076.936580266084	35.091918928619
4	119272	29106.814485759244	64.528264584502
4	119288	29111.634621680537	60.989307968484
4	119302	29116.512299291275	58.05148075408
4	119307	29117.108717114785	56.333116995664
4	119312	29121.242796840581	59.987912674433
4	119317	29122.630218340804	60.20428897849
4	119324	29127.018604191598	58.204799339504
4	119331	29128.671988518101	54.059134314299
4	119342	29130.576112681555	36.259285587874
4	119351	29135.79943984572	34.374768073187
4	119376	29139.511805309699	31.302744809554
4	119489	29171.013540461419	55.567449168788
4	119512	29175.340040570238	50.932569871532
4	119520	29177.488018613391	27.266425757503
4	119525	29177.782314420139	18.438826555324
4	119534	29179.994753881698	19.798544209403
4	119545	29182.994227992778	6.758095280392
4	119579	29189.597686387562	11.380374151537
4	119599	29193.266164759812	8.200021071745
4	119606	29194.114311756175	5.383686128548
4	119611	29194.414287549157	4.094128964455
4	119634	29201.140335101658	7.797654583123
4	119788	29238.44139230246	41.346021819679
4	119805	29241.055225558427	42.557245377883
4	119811	29242.693262826516	43.203808122984
4	119816	29243.657311503368	40.736134745914
4	119821	29244.139310981342	32.97077365131
4	119830	29250.858454175251	31.039264747917
4	119837	29251.964161798499	19.403961324351
4	119852	29257.350688130485	23.214831340244
4	119858	29258.250767370383	22.189396947804
4	119863	29258.974320072273	19.510631576639
4	119872	29260.281563749287	19.917250105786
4	119884	29261.694780842734	12.9783909781
4	119891	29263.959646129011	15.193044863426
4	119913	29266.919442999639	11.966287980799
4	119922	29268.556794423892	13.141360380027
4	120080	29309.219128371646	49.031795839042
4	120118	29314.057804015188	47.425002872392
4	120123	29315.054264120741	48.235761637115
4	120139	29328.038260056972	59.728715423258
4	120150	29329.755129971429	57.035890864926
4	120155	29329.964164130401	54.193391331451
4	120162	29335.373569846714	56.677622762327
4	120172	29337.583393044543	57.202246688191
4	120191	29341.391152559195	50.338593875041
4	120196	29341.719635147709	45.995638250504
4	120203	29343.00266281871	44.240864377198
4	120217	29346.988176671064	40.949494334432
4	120240	29352.536947635518	39.160169885921
4	120269	29356.857167706336	41.57666785032
4	120301	29368.872148019212	51.817287507044
4	120306	29370.314402835831	49.685962817138
4	120317	29373.969485215213	46.103520516893
4	120336	29375.94493818385	40.66537077753
4	120346	29377.325943900266	37.238075616645
4	120515	29411.884987793988	67.285188780041
4	120523	29415.752080229175	54.722700356755
4	120531	29418.406915353017	43.247800961574
4	120551	29420.43336010291	43.48875734556
4	120558	29420.566442818449	40.086825872053
4	120593	29427.83444155882	34.384108430418
4	120612	29431.862093730021	37.004660175616
4	120621	29434.490820836686	39.256415570417
4	120646	29448.981483167771	49.013617791892
4	120678	29452.831639542842	51.260616733688
4	120755	29470.854604842047	68.444354363027
4	120920	29518.963034402056	108.6973572352
4	120931	29521.143906596048	94.046594090219
4	120983	29535.713007221336	108.22915666848
4	120996	29539.123367261105	108.97591837624
4	121001	29539.653418328088	102.37836467289
4	121006	29539.824055091381	93.953578720457
4	121013	29542.916821471245	89.633663223419
4	121047	29549.625162143172	90.200811947525
4	121052	29550.137925964307	90.372313493292
4	121064	29553.626553808304	88.690850175137
4	121090	29556.87436246357	87.126677123618
4	121129	29565.132829353706	93.559184516107
4	121134	29565.987336476496	83.693648629254
4	121139	29566.936990897094	79.530621905059
4	121149	29569.283750071719	81.182432402061
4	121168	29575.74619323551	86.68435618905
4	121175	29579.238732453864	89.615161183517
4	121180	29579.921502719913	90.162962390889
4	121187	29583.06351137221	85.50648216193
4	121201	29585.446472519269	77.214316090403
4	121208	29588.813092881079	73.753658837094
4	121223	29592.74345545277	77.513314208592
4	121244	29595.622832431893	76.008784910976
4	121257	29597.594806942239	73.42438434746
4	121262	29598.898688402696	73.404239680158
4	121267	29598.964296039632	70.771525035892
4	121272	29601.480789696699	70.830032497035
4	121277	29605.703950322282	74.791402256488
4	121284	29608.495266675019	61.747220641176
4	121306	29614.595922923807	63.173651253044
4	121327	29619.095540324813	63.627784959445
4	121364	29626.067074836485	64.903830247434
4	121370	29627.221883410081	63.173913530419
4	121376	29629.905940203758	57.05485270127
4	121384	29632.491919284918	53.788098016373
4	121395	29635.955078636118	50.869365779912
4	121420	29641.127948848221	50.276217394795
4	121426	29643.941082342308	33.755053519494
4	121439	29649.085773439806	37.366917710768
4	121456	29649.715994662904	34.655330027417
4	121467	29653.085733769265	37.968104690298
4	121472	29657.031552799344	41.849553268468
4	121477	29658.1912087024	42.927408882164
4	121484	29659.994701437114	34.159069223595
4	121497	29663.421387636736	33.059258683747
4	121517	29667.506964321922	32.040770357953
4	121522	29668.519154562949	21.370814327793
4	121527	29669.948095691045	22.007337081342
4	121532	29672.687463919661	22.516122447353
4	121540	29675.567327497333	24.407460669826
4	121566	29682.166542460423	23.176647318892
4	121710	29716.556619209828	56.195267797729
4	121719	29717.996125652913	55.175157686972
4	121767	29728.245025783238	62.776642158707
4	121772	29728.252314577886	52.013229451243
4	121796	29737.591329430352	58.325499609401
4	121832	29742.38901262106	61.792199975376
4	121839	29743.916012425143	57.030112020056
4	121849	29746.790902412536	58.784571188531
4	121855	29747.992630400186	48.756091056277
4	121861	29749.969382401526	47.541277885006
4	121866	29750.521599208728	38.404887695575
4	121871	29751.743249365384	32.962232142366
4	121884	29757.307889606605	33.135537020636
4	121934	29770.269803469749	44.803049306725
4	121942	29771.38911322568	42.966930965747
4	121958	29775.35015111364	45.933457246838
4	121965	29777.275101446631	47.38962104092
4	121972	29778.447668040052	43.361719290653
4	121986	29782.067024248599	46.73825307515
4	122008	29787.073742469079	49.618642474937
4	122034	29791.914593081968	54.393929822252
4	122041	29792.796670300085	54.045797346849
4	122046	29792.890656085421	39.955944049826
4	122052	29794.059285783996	40.762296798145
4	122063	29796.396909514093	38.695897230302
4	122092	29799.789817344916	41.494748627593
4	122101	29803.8803801265	42.486002352249
4	122124	29810.073543063916	44.719557390618
4	122141	29813.10057995106	46.89968970412
4	122149	29816.072183344523	49.574209513226
4	122198	29828.160395317678	60.781579123978
4	122207	29831.461460506747	58.937924993172
4	122221	29836.566443177163	63.901200946304
4	122236	29843.259352452789	67.391940719927
4	122253	29846.822523905703	65.313542362024
4	122265	29848.343555150616	63.470754404537
4	122272	29850.539818664187	55.209852251683
4	122381	29873.718130846806	76.263713627001
4	122386	29874.172625661071	75.971567662852
4	122391	29875.530405887648	71.193404904869
4	122415	29880.482766967136	64.347476597
4	122510	29896.282261622888	78.369619874093
4	122517	29897.615787196591	71.355433839634
4	122527	29902.8072916824	66.780169383396
4	122543	29904.330837618547	66.052785316857
4	122554	29907.470823955443	62.368623139434
4	122559	29909.819123713204	53.108944405212
4	122564	29910.35365921127	53.209150935325
4	122571	29911.837636917591	48.667054808985
4	122580	29913.866656787149	49.796994850802
4	122591	29914.953721970335	42.791174654825
4	122600	29917.710540596394	44.909791879485
4	122618	29919.563220296499	43.705273711373
4	122643	29922.737830935372	44.823111169577
4	122755	29951.727518194513	73.77388491907
4	122770	29954.782688128086	75.598029495393
4	122788	29961.591923120966	81.690147100835
4	122797	29964.87583891341	84.098844276372
4	122813	29968.916390126016	87.751623743135
4	122848	29975.997589771674	89.052566160633
4	122857	29979.72784279829	89.391615788136
4	122899	29990.73823277704	93.706785257886
4	122912	29993.586784051935	95.74578194332

