version 2
run Second-n4-14-20191016-17:04:25-7220
attr configname Second-n4
attr datetime 20191016-17:04:25
attr experiment Second-n4
attr inifile omnetpp.ini
attr iterationvars ""
attr iterationvarsf ""
attr measurement ""
attr network org.omnetpp.queueing.Pizza
attr processid 7220
attr repetition 14
attr replication ""
attr resultdir results
attr runnumber 14
attr seedset 14
param **.PS.maxInventoriedPS 4
param **.U1.interArrivalTime exponential(3s)
param **.U2.interArrivalTime exponential(5s)
param **.PS.serviceTimeForInventoryU1 exponential(1.0s)
param **.PS.serviceTimeForInventoryU2 exponential(1.2s)
param **.PS.serviceTimeDirectU1 exponential(1.4s)
param **.PS.serviceTimeDirectU2 exponential(1.4s)
param **.PS.probabilityProducing 0.7
param **.CS.serviceTimeU1 exponential(1.1s)
param **.CS.serviceTimeU2 exponential(1.4s)

vector 0 Pizza.EntryQueueU1 queueLength:vector ETV
attr interpolationmode sample-hold
attr title "queue length, vector"
vector 1 Pizza.CS queueLength:vector ETV
attr interpolationmode sample-hold
attr title "queue length, vector"
vector 2 Pizza.EntryQueueU2 queueLength:vector ETV
attr interpolationmode sample-hold
attr title "queue length, vector"
vector 3 Pizza.sink lifeTime:vector ETV
attr interpolationmode none
attr title "lifetime of arrived jobs, vector"
attr unit s
vector 4 Pizza.sink lifeTimeU1:vector ETV
attr interpolationmode none
attr title "lifetime of arrived jobs, vector"
attr unit s
vector 5 Pizza.sink lifeTimeU2:vector ETV
attr interpolationmode none
attr title "lifetime of arrived jobs, vector"
attr unit s
0	0	0	0
0	59	19.864288770696	1
0	61	20.169050774118	2
0	62	20.581764436503	1
0	67	20.920555339859	0
0	92	35.983041989678	1
0	96	39.49640373689	2
0	99	41.43327059078	1
0	106	41.664839037095	0
0	204	69.112487225126	1
0	205	70.435432264934	0
0	217	71.629987460519	1
0	221	73.251665670825	2
0	227	74.297740961881	1
0	232	74.337762972907	0
0	243	75.138321500938	1
0	247	76.108224477643	2
0	248	76.584955707979	1
0	253	77.211456720023	0
0	266	81.480452697275	1
0	268	81.718127908114	2
0	269	82.574408852462	1
0	275	83.029600278712	2
0	277	83.756851143003	1
0	284	85.531615887331	0
0	297	87.511451122105	1
0	299	88.048824241377	2
0	301	88.101857021131	3
0	302	88.590575398626	2
0	308	88.63613471783	3
0	310	88.657397454683	4
0	312	88.999119079518	3
0	320	91.858763868682	2
0	329	93.110839907192	3
0	330	93.596998779149	2
0	335	93.678306184038	1
0	340	93.765546771978	0
0	349	94.590147130332	1
0	352	95.176621137392	2
0	353	95.330571902173	1
0	360	96.454840274394	2
0	361	96.913441137397	1
0	372	99.036208612713	0
0	378	99.949020463297	1
0	379	100.108983096049	0
0	393	101.878411067958	1
0	396	103.557244762483	2
0	397	104.231753353152	1
0	404	105.031330885203	0
0	426	109.500474519425	1
0	428	109.564628960281	2
0	429	109.825794984638	1
0	435	110.341363018638	0
0	441	110.606739664305	1
0	442	111.972627711401	0
0	448	112.416240671479	1
0	449	112.609741668286	0
0	480	119.209409199834	1
0	483	120.157400305289	0
0	492	121.751616955135	1
0	493	122.429490651002	0
0	512	126.195296880183	1
0	516	126.637272060129	2
0	517	126.792221332707	1
0	522	127.377990946077	0
0	531	128.330944116973	1
0	536	129.500664661282	0
0	559	133.448008526991	1
0	561	133.924527090852	2
0	564	136.077137336633	1
0	570	136.568831921343	0
0	628	148.082112143633	1
0	631	148.131000565202	0
0	642	149.794604627878	1
0	645	150.213026885059	2
0	650	151.104362234295	1
0	655	151.801454510776	0
0	676	155.31550530596	1
0	679	156.730286861481	0
0	690	157.456076258126	1
0	695	159.219250135372	2
0	696	159.353034813809	1
0	703	159.590880366115	2
0	705	161.273566551488	3
0	707	162.675587914008	4
0	708	163.072194195165	3
0	718	165.848319915806	4
0	720	166.119082742471	3
0	726	166.319699863391	4
0	727	167.961615214711	3
0	732	168.650996816078	2
0	738	169.868409263031	1
0	746	170.933281925517	0
0	752	171.722488701591	1
0	755	174.798272062261	0
0	792	180.404637068929	1
0	796	181.780782886313	2
0	800	183.136868550783	1
0	811	185.984217573492	0
0	817	187.129281020383	1
0	818	188.474732224648	0
0	824	188.775521070848	1
0	828	190.254788371463	0
0	842	194.098267590957	1
0	843	195.676897509384	0
0	861	196.977388738442	1
0	862	197.208154460448	0
0	869	198.281436545819	1
0	870	199.824705747346	0
0	876	200.072800758242	1
0	878	200.49949233774	0
0	981	241.26353368482	1
0	983	242.828481942991	2
0	985	243.076148735824	3
0	986	243.280780951072	2
0	993	244.770500777024	1
0	999	245.542418721713	2
0	1000	245.956608179333	1
0	1004	246.562868701475	2
0	1008	248.157924853291	3
0	1009	248.552738498265	2
0	1015	248.981208083126	3
0	1018	250.723005650188	2
0	1022	252.0595851825	3
0	1025	253.176557198188	2
0	1029	253.210836487356	3
0	1032	255.107591634222	2
0	1036	256.626654184305	3
0	1043	259.167576053893	2
0	1049	260.325006188971	3
0	1051	260.539889508475	4
0	1053	260.692666552048	3
0	1058	261.218950416726	2
0	1062	262.045299131767	3
0	1066	264.289732522125	4
0	1070	266.710623608516	3
0	1076	267.862443675383	2
0	1084	268.171364475366	3
0	1085	268.481647982893	2
0	1090	270.22564415757	1
0	1099	273.839426613214	2
0	1100	274.625905907129	1
0	1105	276.281683205278	0
0	1111	277.574931916082	1
0	1112	277.611420213667	0
0	1134	281.422433664884	1
0	1136	281.614982447164	2
0	1138	281.985964230081	1
0	1143	282.979798945694	0
0	1149	283.450931885463	1
0	1150	284.814672806523	0
0	1154	286.364054836848	1
0	1156	286.436254788385	2
0	1158	286.782014279119	3
0	1162	287.44031529109	2
0	1168	288.600852785028	1
0	1174	290.99994249138	0
0	1181	291.514030825553	1
0	1185	292.296705961973	2
0	1187	292.585766478879	1
0	1192	292.650583026917	0
0	1204	292.955098010161	1
0	1208	294.469656065656	2
0	1210	294.511505754288	3
0	1212	295.225431041356	2
0	1217	295.579305671919	1
0	1223	296.027284546204	2
0	1224	296.213797949585	1
0	1231	297.800060926294	0
0	1243	299.936818357874	1
0	1244	300.758199897619	0
0	1248	301.28675461984	1
0	1252	304.935547130159	0
0	1298	308.394111087331	1
0	1300	309.826650049637	2
0	1305	310.805997937658	1
0	1310	310.944586785976	0
0	1359	326.810461554729	1
0	1360	328.153521399908	0
0	1381	335.659926511523	1
0	1383	336.501673738995	2
0	1384	337.060074344397	1
0	1390	337.064072878305	2
0	1392	338.120211937386	1
0	1397	338.201780741715	0
0	1410	339.668582885271	1
0	1412	339.823882774006	2
0	1413	340.362010749166	1
0	1421	341.655353707339	2
0	1423	342.299479352586	3
0	1426	342.611465980135	2
0	1431	342.753107668305	1
0	1435	342.916689773893	2
0	1438	343.739517554827	1
0	1445	345.278171970324	0
0	1464	349.78544734425	1
0	1468	352.84550737638	2
0	1469	353.225986337732	1
0	1476	353.822272704176	2
0	1477	354.40929581172	1
0	1484	358.162109089333	0
0	1492	359.011249290896	1
0	1493	359.207877631783	0
0	1500	361.444261441783	1
0	1505	363.62004023799	0
0	1537	372.76378497698	1
0	1538	373.208515505987	0
0	1561	378.153317255288	1
0	1563	378.879723114259	0
0	1571	379.36981295109	1
0	1572	379.904310379809	0
0	1587	381.119597743093	1
0	1588	382.371683527774	0
0	1602	383.770288607647	1
0	1603	383.844188540642	0
0	1610	384.195936932923	1
0	1611	384.724130887525	0
0	1637	392.657466276669	1
0	1639	394.752876464972	2
0	1640	395.148842412016	1
0	1645	395.277759725119	0
0	1673	400.661460928163	1
0	1674	401.158654408938	0
0	1734	414.333472772787	1
0	1739	415.249629817681	0
0	1746	415.740692939178	1
0	1748	416.132565560488	2
0	1750	416.717659297833	3
0	1751	417.414884093871	2
0	1757	418.142353137047	3
0	1758	418.512168941857	2
0	1763	418.950670441866	1
0	1768	419.897034253275	0
0	1788	425.022777457174	1
0	1793	426.257361561483	2
0	1794	426.397541621837	1
0	1800	427.010462238107	0
0	1810	428.566895301916	1
0	1811	429.495041750451	0
0	1825	431.476102119783	1
0	1826	432.051228599202	0
0	1850	433.781848973785	1
0	1853	434.967063200085	0
0	1869	438.919505027067	1
0	1870	440.366351684712	0
0	1881	443.532283246386	1
0	1885	444.979912141074	2
0	1886	446.617704289344	1
0	1892	447.005250634072	2
0	1894	447.639151512746	1
0	1900	448.276197090918	0
0	1943	456.040572848345	1
0	1945	456.388962784974	2
0	1946	457.08829564246	1
0	1952	457.360150526498	2
0	1953	457.389721661767	1
0	1958	457.712778185471	0
0	1974	461.267760760909	1
0	1979	464.611524581417	0
0	2000	468.602383657153	1
0	2002	469.62488223546	2
0	2004	470.954285821246	3
0	2008	472.300269288202	2
0	2018	473.746186270614	3
0	2019	473.978875408244	2
0	2026	475.777743420395	1
0	2031	475.844962172962	0
0	2048	479.361157397936	1
0	2050	480.016079328519	2
0	2051	480.189769415112	1
0	2056	481.771154284955	0
0	2090	488.854737233071	1
0	2091	488.900820007808	0
0	2109	493.914623472501	1
0	2110	494.606987067182	0
0	2133	500.767671267732	1
0	2134	501.134114050767	0
0	2173	511.654755421363	1
0	2176	512.637413715291	0
0	2189	514.118755502142	1
0	2190	514.705769831345	0
0	2217	518.532245952871	1
0	2219	520.074337225934	2
0	2226	521.219838301247	1
0	2231	521.229398886492	0
0	2275	529.604770755265	1
0	2276	530.023942845461	0
0	2291	533.044748514889	1
0	2292	533.045409592013	0
0	2315	536.474507028585	1
0	2317	539.08769075046	0
0	2338	543.902919612815	1
0	2340	546.062158739758	0
0	2346	546.099638927405	1
0	2348	546.834183367663	0
0	2356	547.780061511678	1
0	2358	549.523844359203	2
0	2361	549.957090152814	1
0	2366	550.126360612813	0
0	2372	550.950349288202	1
0	2376	551.575125070965	2
0	2378	551.869700115541	3
0	2379	552.719078104067	2
0	2385	552.749123523256	3
0	2388	555.159836770291	2
0	2395	557.64935731062	1
0	2400	558.875046990986	0
0	2412	559.449383094995	1
0	2417	562.268650377704	2
0	2418	562.917386877942	1
0	2423	563.083009584778	0
0	2434	564.568046652	1
0	2439	566.104441327425	2
0	2441	566.496487801592	3
0	2445	566.853132823716	2
0	2452	568.792286972645	3
0	2453	569.029616014252	2
0	2458	569.27650789241	1
0	2463	569.426825510289	0
0	2492	572.337600833362	1
0	2496	573.289224694264	2
0	2499	573.872496572393	3
0	2500	574.182061030996	2
0	2507	575.560094646595	3
0	2508	576.169209745539	2
0	2517	578.696616943418	1
0	2523	579.657276764433	0
0	2545	581.864749343413	1
0	2547	582.559461506186	0
0	2553	582.711869921052	1
0	2555	582.801996830498	2
0	2557	583.117492704691	1
0	2563	583.758979810691	2
0	2564	585.095423985006	1
0	2569	585.308554268369	0
0	2585	589.03096893219	1
0	2586	590.08077753731	0
0	2608	594.09177209341	1
0	2609	594.387730209261	0
0	2649	624.496646601609	1
0	2654	625.809572142239	0
0	2660	626.223685780715	1
0	2661	626.299840682724	0
0	2667	626.626686338065	1
0	2671	627.666397260364	2
0	2672	627.745246706029	1
0	2679	628.898746610473	0
0	2697	629.646302679569	1
0	2700	630.12339096461	0
0	2706	630.247469990775	1
0	2708	630.30444395375	2
0	2709	630.321798027281	1
0	2715	630.658029580021	2
0	2716	630.926924758868	1
0	2724	633.181891878786	0
0	2758	636.39405992817	1
0	2766	642.627867276989	2
0	2767	642.687964367097	1
0	2775	644.257642435676	2
0	2777	644.464348845163	3
0	2780	645.248757432238	2
0	2785	645.472037709709	1
0	2795	646.480579050826	2
0	2796	646.845995867996	1
0	2803	647.742494285534	2
0	2804	648.335418725637	1
0	2810	649.167918077657	0
0	2817	649.577233236213	1
0	2821	650.629774331408	2
0	2823	650.891367325753	3
0	2824	651.081283625459	2
0	2829	651.124411744381	1
0	2836	651.541946584038	0
0	2861	657.205107813086	1
0	2863	658.765057631129	2
0	2866	660.648538011263	1
0	2872	663.011663263735	0
0	2884	664.962488243134	1
0	2885	665.275205220034	0
0	2896	666.743585210109	1
0	2902	670.153037728965	2
0	2903	670.294979340138	1
0	2908	670.358368243535	0
0	2931	676.611878020605	1
0	2935	677.316872725028	2
0	2937	678.27813288479	3
0	2941	679.339813038021	2
0	2949	680.006698178701	1
0	2956	680.826934633825	2
0	2961	682.855782836374	1
0	2966	684.88981102771	0
0	2977	685.041357445136	1
0	2979	685.58124936499	2
0	2984	687.764217113486	1
0	2991	689.199123537494	2
0	2992	689.552163942285	1
0	2998	690.292288595114	2
0	3001	690.61974500742	1
0	3007	691.190123850122	2
0	3012	692.547558112918	3
0	3015	696.225746477082	4
0	3017	696.261737742935	5
0	3018	696.792566430676	4
0	3024	697.049971235259	3
0	3029	697.615838058699	2
0	3035	697.749006569221	3
0	3037	697.7570823066	2
0	3043	698.536423062868	1
0	3053	699.978621397404	0
0	3078	705.659066764563	1
0	3079	706.009214748417	0
0	3090	709.23015674713	1
0	3091	709.542589678114	0
0	3110	711.989722907423	1
0	3112	712.003943902364	2
0	3116	714.570066413023	1
0	3121	714.964010547998	0
0	3130	716.041388876449	1
0	3133	717.103386808066	0
0	3145	718.943053457937	1
0	3147	719.211084142804	2
0	3149	719.30095494082	3
0	3151	719.962674662422	4
0	3155	721.188781155579	3
0	3161	721.566878548605	4
0	3162	721.626470211863	3
0	3169	723.243168632256	4
0	3170	724.670833656538	3
0	3176	726.054832668955	4
0	3177	726.514568494383	3
0	3182	726.917416926571	2
0	3191	729.55139095492	1
0	3197	732.916083785718	2
0	3202	735.027055184727	1
0	3207	737.445037452733	0
0	3211	737.748696925644	1
0	3213	738.682087757118	2
0	3217	738.980158243415	3
0	3220	741.14961969607	2
0	3228	741.702858053411	3
0	3230	742.295396465858	4
0	3232	743.458075694513	5
0	3234	744.49552403149	4
0	3239	744.588170727725	3
0	3244	744.844004541864	2
0	3252	747.932889306378	1
0	3258	748.723967996659	2
0	3260	749.400867461315	1
0	3267	750.043887177082	0
0	3292	753.662362415227	1
0	3294	754.45875899718	0
0	3305	754.676998434938	1
0	3309	756.437935572199	0
0	3316	756.992249501634	1
0	3317	757.384380699366	0
0	3324	757.793594551745	1
0	3326	758.697772875367	0
0	3337	759.657664571521	1
0	3340	759.910946091373	0
0	3354	761.957292993685	1
0	3356	762.38240057942	0
0	3382	766.358541253981	1
0	3387	768.425233203896	2
0	3388	768.773523141961	1
0	3394	769.261521900343	2
0	3396	772.0377978181	1
0	3407	774.599291892039	0
0	3418	774.911370453749	1
0	3421	778.612524479002	0
0	3451	783.944071410032	1
0	3453	784.373639814507	2
0	3455	785.149617488097	3
0	3456	785.822546365845	2
0	3462	787.164077018782	1
0	3472	788.335135005975	2
0	3473	788.961687851456	1
0	3478	789.035915561027	0
0	3490	789.407398930895	1
0	3491	791.107119711514	0
0	3534	805.157186883723	1
0	3535	805.670968533345	0
0	3563	814.155519866249	1
0	3566	814.772407086423	0
0	3600	823.954329022373	1
0	3602	824.171408563913	2
0	3604	824.196432629997	3
0	3605	825.777182754303	2
0	3611	825.971807985682	3
0	3613	826.137482447233	2
0	3618	826.454019445669	1
0	3627	827.354445263578	2
0	3628	827.74531273869	1
0	3633	827.8072625043	0
0	3653	833.79212566998	1
0	3655	834.077141004667	0
0	3670	836.335531101753	1
0	3672	837.516472780948	2
0	3675	839.836640237578	3
0	3677	840.304206786816	4
0	3679	840.839278746051	5
0	3680	841.492453055685	4
0	3685	842.541417772679	3
0	3692	843.072435267346	2
0	3698	844.344017959484	1
0	3703	844.605235660304	0
0	3714	846.026870680457	1
0	3715	846.223724298438	0
0	3743	850.610842109266	1
0	3748	852.551907307909	2
0	3751	853.564624698948	1
0	3756	853.844371366398	0
0	3762	854.277502679821	1
0	3763	855.928002457093	0
0	3778	858.404604182758	1
0	3780	862.347060289078	0
0	3796	864.316949728225	1
0	3798	864.369577059623	2
0	3799	865.722134532034	1
0	3805	865.985438870579	2
0	3806	866.150588632618	1
0	3811	866.173754436762	0
0	3830	868.919279361366	1
0	3831	870.327701333045	0
0	3837	870.964377399405	1
0	3839	870.975479872	2
0	3841	871.73438679719	1
0	3847	873.107783033874	0
0	3860	877.488741191635	1
0	3866	879.932808205289	2
0	3867	881.344095776873	1
0	3875	882.232029137352	2
0	3876	882.633130862742	1
0	3882	883.064585869713	0
0	3967	911.089553553562	1
0	3968	911.801086696621	0
0	4000	919.405346453747	1
0	4001	919.41294876644	0
0	4019	920.981221446625	1
0	4020	921.261748633452	0
0	4038	926.453417051555	1
0	4039	926.709181577785	0
0	4045	926.964265003133	1
0	4047	927.146458893748	2
0	4049	927.233134792966	3
0	4050	927.565239130704	2
0	4055	928.214244009348	1
0	4060	928.710982387223	0
0	4074	931.484600509086	1
0	4075	932.155709118305	0
0	4156	958.327523670982	1
0	4161	960.091718648722	0
0	4176	963.370050438939	1
0	4178	964.043109026993	2
0	4186	967.582837847523	1
0	4191	968.595829070757	0
0	4206	972.826422017556	1
0	4207	973.309867302254	0
0	4213	973.781831115355	1
0	4214	974.077644800102	0
0	4255	984.300660609547	1
0	4258	985.486974262419	0
0	4267	986.754668445999	1
0	4271	990.529393169921	0
0	4318	998.32602074975	1
0	4320	998.384368612398	2
0	4324	999.155192350824	1
0	4332	1001.236723281465	0
0	4345	1004.931438525007	1
0	4346	1005.147259250613	0
0	4361	1009.383319726278	1
0	4363	1009.587106883245	2
0	4364	1009.659775402675	1
0	4370	1011.264980183121	0
0	4376	1011.932395805303	1
0	4377	1012.319594037319	0
0	4431	1022.043694976223	1
0	4432	1023.094735704384	0
0	4449	1032.952325515098	1
0	4450	1033.043559141254	0
0	4503	1046.176953354857	1
0	4505	1046.529446917602	0
0	4519	1048.399422818089	1
0	4520	1051.124629740911	0
0	4541	1056.946120302924	1
0	4542	1056.985800631097	0
0	4557	1058.593578149742	1
0	4559	1061.796099665378	2
0	4564	1062.378489352351	3
0	4572	1065.921756027509	4
0	4573	1066.467696048549	3
0	4579	1068.465929404068	2
0	4585	1069.276614394493	3
0	4587	1069.675766414278	4
0	4592	1070.738914166583	5
0	4593	1072.256853017321	4
0	4598	1072.452422143144	3
0	4603	1073.584085184702	2
0	4611	1074.479091950315	3
0	4618	1075.320384453099	2
0	4628	1077.705584200983	1
0	4633	1079.047035077778	0
0	4647	1080.698767948377	1
0	4653	1081.881173480367	0
0	4659	1081.897386657328	1
0	4661	1082.410498849064	2
0	4664	1082.702966628373	3
0	4667	1083.025076771096	2
0	4672	1083.186755662266	1
0	4677	1083.534705794172	0
0	4689	1085.67668017312	1
0	4691	1086.225902768199	0
0	4714	1088.280569018215	1
0	4716	1088.972249615682	0
0	4750	1099.761902981418	1
0	4757	1101.968847557568	0
0	4797	1112.754520897194	1
0	4798	1113.076516235848	0
0	4829	1122.600421550425	1
0	4830	1122.722024080345	0
0	4856	1129.936816489395	1
0	4859	1130.214555691811	0
0	4895	1138.040867125063	1
0	4898	1138.527685945406	0
0	4911	1139.748803368935	1
0	4914	1141.096276352349	0
0	4927	1143.69001953954	1
0	4931	1145.108527171556	0
0	4958	1151.27645553392	1
0	4960	1151.617874176002	0
0	4967	1152.600614489335	1
0	4970	1154.443298502699	2
0	4971	1155.02566849038	1
0	4976	1155.538860262466	0
0	5004	1160.530219110869	1
0	5006	1160.91160101197	2
0	5007	1161.339305556269	1
0	5013	1161.870683395571	2
0	5015	1162.568296539417	1
0	5020	1163.5014689142	0
0	5026	1164.387443614409	1
0	5030	1165.341824605851	2
0	5032	1166.113173253198	3
0	5035	1169.39941257842	2
0	5040	1169.921115589181	1
0	5046	1170.816578844122	0
0	5055	1171.135386967232	1
0	5056	1171.188069787707	0
0	5062	1172.08414847805	1
0	5063	1172.108582414161	0
0	5075	1174.675030647008	1
0	5079	1175.296552359329	2
0	5080	1177.349998120428	1
0	5085	1177.516926642692	0
0	5092	1178.089040571612	1
0	5098	1178.772629908935	2
0	5100	1179.384883883	3
0	5103	1180.915141116106	2
0	5109	1181.816005791871	3
0	5110	1183.21517456609	2
0	5115	1183.577059737937	1
0	5121	1185.798833392406	2
0	5122	1186.243170204562	1
0	5129	1188.126558789861	0
0	5164	1196.879206957639	1
0	5168	1198.485668140462	0
0	5175	1199.181351282598	1
0	5177	1199.272910968624	2
0	5178	1200.763414411095	1
0	5183	1201.071512431521	0
0	5196	1202.770703554491	1
0	5197	1202.98052760455	0
0	5205	1203.329823771422	1
0	5207	1203.397266815648	2
0	5209	1204.526994288948	3
0	5212	1206.516598415386	2
0	5217	1206.843516652146	1
0	5223	1207.178898420179	0
0	5247	1209.832616525284	1
0	5248	1209.869619921043	0
0	5287	1217.660549139849	1
0	5293	1219.173154439303	2
0	5294	1220.133607714432	1
0	5302	1221.470870032032	0
0	5321	1223.603995567698	1
0	5327	1226.128572813284	0
0	5333	1226.638418557754	1
0	5335	1226.967606867445	0
0	5410	1252.985802991375	1
0	5412	1253.788305593784	0
0	5418	1253.925367747681	1
0	5419	1254.223197792942	0
0	5425	1255.063553585181	1
0	5427	1255.184827301819	2
0	5429	1256.626025662557	1
0	5436	1257.021854293668	0
0	5450	1260.168253014452	1
0	5451	1260.394707710807	0
0	5465	1262.494825105952	1
0	5468	1263.97899926556	2
0	5471	1264.279068355113	3
0	5473	1265.958250878356	2
0	5482	1270.900256708438	1
0	5490	1272.350582986716	0
0	5520	1279.471300829961	1
0	5522	1280.808285016785	2
0	5523	1281.27277304518	1
0	5532	1283.90890543642	2
0	5533	1284.67457894206	1
0	5541	1285.892544784598	2
0	5542	1286.062156615902	1
0	5547	1286.549397728327	0
0	5575	1290.580693049521	1
0	5577	1291.784206789785	2
0	5580	1293.011951323796	1
0	5587	1293.86489106907	2
0	5588	1294.952642324044	1
0	5593	1295.325557044955	0
0	5600	1295.833689279057	1
0	5601	1296.057253493195	0
0	5632	1311.267527670232	1
0	5634	1311.985186497739	0
0	5658	1316.667903072286	1
0	5659	1316.931304331507	0
0	5666	1319.12844645528	1
0	5670	1320.924381100644	0
0	5678	1322.207806028515	1
0	5681	1323.670467798584	0
0	5687	1324.418020742453	1
0	5688	1324.522041436397	0
0	5709	1327.123957184396	1
0	5711	1328.236014931195	0
0	5725	1330.725040849344	1
0	5726	1331.012419195556	0
0	5747	1334.375289607375	1
0	5748	1334.953427647146	0
0	5755	1335.98491320015	1
0	5756	1336.754232036914	0
0	5825	1365.032278139484	1
0	5826	1365.554985944339	0
0	5887	1382.973784880686	1
0	5889	1383.479857884888	2
0	5891	1384.8116005528	3
0	5893	1385.344285376283	2
0	5899	1386.514694095449	1
0	5905	1387.432791823902	0
0	5930	1393.799642949918	1
0	5931	1393.989539313899	0
0	5967	1402.15021791067	1
0	5968	1402.254763108582	0
0	6050	1426.070916903837	1
0	6051	1427.185268627715	0
0	6074	1430.733833474258	1
0	6076	1431.282352055091	2
0	6078	1432.293416215162	1
0	6086	1434.864515992408	0
0	6106	1437.222201594146	1
0	6107	1437.906910891183	0
0	6113	1438.099732641384	1
0	6117	1438.944920327241	0
0	6137	1448.283221594964	1
0	6139	1448.386575410158	2
0	6142	1449.072445669827	3
0	6143	1449.342994422968	2
0	6152	1451.343860757857	1
0	6157	1451.427321158053	0
0	6163	1451.821702892622	1
0	6164	1452.23011482455	0
0	6199	1460.161963096722	1
0	6200	1461.992962704647	0
0	6215	1463.015998732349	1
0	6216	1463.492286025528	0
0	6233	1465.982801983656	1
0	6236	1467.113468789076	2
0	6241	1467.682361197692	3
0	6243	1470.465282506862	4
0	6244	1471.397505827328	3
0	6249	1471.807936339888	2
0	6257	1472.831711095212	3
0	6258	1473.325126943787	2
0	6264	1476.718266663151	1
0	6269	1476.730609494284	0
0	6288	1477.606789334124	1
0	6290	1478.139174153282	2
0	6291	1478.375167794046	1
0	6298	1479.25260126296	0
0	6319	1482.318800295127	1
0	6320	1482.920457909561	0
0	6336	1486.43339506795	1
0	6337	1487.185785341629	0
0	6368	1491.612836760751	1
0	6369	1492.190526089678	0
0	6384	1493.347550561213	1
0	6388	1494.26154646137	2
0	6391	1495.602529254683	3
0	6393	1497.432022204374	2
0	6399	1497.656642737639	1
0	6404	1498.080563583088	0
0	6426	1503.393224809031	1
0	6430	1504.621106514465	0
0	6449	1506.839239035592	1
0	6451	1506.953414069138	0
0	6551	1552.436904288737	1
0	6553	1552.468297909025	2
0	6554	1554.123839357621	1
0	6559	1554.552185271941	0
0	6607	1572.485263686182	1
0	6609	1572.589045672495	0
0	6687	1604.379934061782	1
0	6688	1606.088645547469	0
0	6694	1606.141592295689	1
0	6695	1606.160828986755	0
0	6710	1610.725894900814	1
0	6712	1612.160216906651	2
0	6713	1612.972956829457	1
0	6721	1615.111404742075	0
0	6727	1615.614803539469	1
0	6728	1615.987694183796	0
0	6751	1619.892352700484	1
0	6752	1620.758352336379	0
0	6774	1627.171349471254	1
0	6775	1627.326880136753	0
0	6788	1630.319680747896	1
0	6789	1632.510562767454	0
0	6811	1634.608894459223	1
0	6814	1635.191916017508	2
0	6815	1635.488768785096	1
0	6821	1636.021910311788	2
0	6822	1636.268278334492	1
0	6827	1636.414520334528	0
0	6831	1636.750357363652	1
0	6835	1637.472808106574	2
0	6837	1637.647413557804	3
0	6839	1638.514001988431	4
0	6845	1638.95585282804	3
0	6854	1640.582762146214	2
0	6859	1641.224257101677	1
0	6868	1641.996800511709	2
0	6869	1642.301321403179	1
0	6878	1643.843294178813	0
0	6904	1645.972683849644	1
0	6909	1648.179986095463	0
0	6931	1654.082897846964	1
0	6934	1656.547327643837	0
0	6946	1659.348687867762	1
0	6947	1660.421597226512	0
0	6959	1664.529621258906	1
0	6962	1665.04043222225	0
0	6968	1665.730959207491	1
0	6972	1666.63961597298	0
0	6990	1672.090646806297	1
0	6993	1672.791508456032	2
0	6994	1673.590265096785	1
0	6999	1674.352561094891	0
0	7012	1675.247210649892	1
0	7013	1676.050700126223	0
0	7093	1696.048667959475	1
0	7096	1696.827301716154	0
0	7102	1697.08709728675	1
0	7103	1697.373960645001	0
0	7146	1707.125976044025	1
0	7148	1707.211505051215	2
0	7150	1708.040401323917	3
0	7152	1712.308941188013	4
0	7153	1712.902374074419	3
0	7159	1713.17863933909	2
0	7164	1713.60896322176	1
0	7169	1714.099913281365	0
0	7177	1714.434436374321	1
0	7179	1716.595010543537	0
0	7213	1722.161374056633	1
0	7218	1724.471229990795	2
0	7221	1726.985620734128	1
0	7226	1728.763170865252	0
0	7235	1729.964722578067	1
0	7240	1733.24130451055	0
0	7276	1741.702287935881	1
0	7281	1743.551011333883	0
0	7302	1749.343113533358	1
0	7303	1749.356375303399	0
0	7334	1755.156943614001	1
0	7335	1755.649817723378	0
0	7359	1760.694674869689	1
0	7362	1767.278136466518	0
0	7376	1768.302617732354	1
0	7377	1768.565601011241	0
0	7419	1778.796425107659	1
0	7421	1778.809819060209	2
0	7423	1779.059465882601	3
0	7427	1779.791389755085	2
0	7432	1780.210326178045	1
0	7439	1782.441142206063	0
0	7495	1797.055877824131	1
0	7497	1797.141112744633	2
0	7498	1797.626150385959	1
0	7503	1798.011679781497	0
0	7526	1805.095243890629	1
0	7527	1805.162364216358	0
0	7559	1815.821515876155	1
0	7561	1818.058725361798	2
0	7562	1820.295201400015	1
0	7569	1822.825935973862	0
0	7575	1822.902567702446	1
0	7578	1823.49182960038	2
0	7579	1823.797008183901	1
0	7584	1823.851402519734	0
0	7590	1824.004963489791	1
0	7592	1824.122843437447	2
0	7593	1824.453465520458	1
0	7601	1825.073212268108	0
0	7641	1838.101151511449	1
0	7642	1838.335016288317	0
0	7661	1841.141619533024	1
0	7664	1842.172577933683	0
0	7692	1844.654093972589	1
0	7693	1844.853042092011	0
0	7729	1863.406718118533	1
0	7730	1864.626412085181	0
0	7746	1868.633735324227	1
0	7748	1869.262722347838	2
0	7753	1869.609993402298	3
0	7754	1869.939329008365	2
0	7760	1871.034577256431	1
0	7766	1871.325860605797	0
0	7812	1889.535480946714	1
0	7815	1890.847706775051	0
0	7848	1896.359513508539	1
0	7852	1897.860740028161	0
0	7880	1901.748519631496	1
0	7883	1903.992378505375	2
0	7884	1904.332127294414	1
0	7891	1905.01876710189	2
0	7894	1906.845485157802	1
0	7900	1907.536246054609	0
0	7921	1920.561525242919	1
0	7922	1920.782137431497	0
0	7928	1922.044986777399	1
0	7930	1923.893492234073	0
0	7944	1926.900882763301	1
0	7947	1927.351992488806	0
0	7954	1927.888522646963	1
0	7955	1928.767461655022	0
0	7963	1929.723591765191	1
0	7964	1930.975527682991	0
0	7992	1936.704843394679	1
0	7993	1937.674394203675	0
0	8008	1941.943980477033	1
0	8009	1942.466736392435	0
0	8041	1952.778311135881	1
0	8042	1953.121495977859	0
0	8048	1953.222187182245	1
0	8049	1953.254525720225	0
0	8057	1954.43196186382	1
0	8058	1955.187983456453	0
0	8101	1964.474659744671	1
0	8103	1968.505691919448	0
0	8116	1970.62194159945	1
0	8117	1970.76895085389	0
0	8151	1980.66218223591	1
0	8153	1981.149504842019	2
0	8154	1982.403221900555	1
0	8161	1982.984771863159	2
0	8163	1983.206887952157	3
0	8164	1985.372339193564	2
0	8169	1985.430076159691	1
0	8177	1985.647924149777	2
0	8180	1986.289747321715	3
0	8181	1987.061257581415	2
0	8188	1989.662444002566	1
0	8193	1990.274568050418	0
0	8221	1999.137896498058	1
0	8223	1999.366479090585	0
0	8296	2016.589199817229	1
0	8301	2017.633465847122	0
0	8307	2017.97362416853	1
0	8309	2018.459968233627	2
0	8315	2019.593198405102	1
0	8322	2020.683589635569	0
0	8344	2022.465622205376	1
0	8346	2024.092666153042	2
0	8348	2025.430692754173	3
0	8349	2026.540969360765	2
0	8356	2028.630985422248	3
0	8357	2030.062935439117	2
0	8363	2030.311831105148	1
0	8369	2031.367496797817	2
0	8374	2033.742713108103	3
0	8376	2035.493178300687	2
0	8384	2035.940662630433	3
0	8385	2036.943917628759	2
0	8390	2037.889429845293	1
0	8395	2038.829599748762	0
0	8427	2044.851897425747	1
0	8428	2045.558975217209	0
0	8434	2045.798065509589	1
0	8436	2046.261006607789	2
0	8437	2046.458823672458	1
0	8442	2047.304106210882	0
0	8466	2051.179758194144	1
0	8470	2053.034422639815	0
0	8480	2054.086814069849	1
0	8482	2054.433932403502	2
0	8485	2055.415009839195	1
0	8491	2056.222844543102	0
0	8533	2073.251734584785	1
0	8535	2073.456977167334	2
0	8536	2075.659440421203	1
0	8546	2076.867867390032	0
0	8552	2077.13598616548	1
0	8555	2080.150540159746	2
0	8556	2081.241324869615	1
0	8561	2081.684261213125	0
0	8570	2084.647854793539	1
0	8571	2084.700841182516	0
0	8595	2086.746950695019	1
0	8596	2087.111849387778	0
0	8603	2087.226896952746	1
0	8606	2088.488489796059	2
0	8608	2088.500847229711	3
0	8610	2088.729879647445	4
0	8622	2099.1445936256	3
0	8628	2100.36519825784	2
0	8635	2102.110098112075	3
0	8636	2103.354710188702	2
0	8643	2104.02876206355	3
0	8644	2104.247208868183	2
0	8651	2104.470171850035	3
0	8652	2105.231344491064	2
0	8658	2106.239844311196	1
0	8663	2106.423534777514	0
0	8674	2106.564994207318	1
0	8677	2106.891878132729	0
0	8691	2107.861485225921	1
0	8693	2108.293301559948	2
0	8697	2109.519224804628	1
0	8703	2109.597163181627	2
0	8708	2110.372621501448	1
0	8713	2110.758670274252	0
0	8717	2111.224943157129	1
0	8722	2111.319323086048	0
0	8744	2114.913152944875	1
0	8746	2114.9545265174	2
0	8748	2115.048034621914	3
0	8750	2115.135631358043	4
0	8752	2115.935676473921	3
0	8757	2116.09308788535	2
0	8763	2118.141745640144	3
0	8764	2118.966109034097	2
0	8771	2121.519661396132	1
0	8776	2121.561663751846	0
0	8780	2122.731263216769	1
0	8782	2123.057338474637	2
0	8784	2123.186026230135	3
0	8786	2123.222303880333	4
0	8791	2125.004764310606	3
0	8798	2128.756858135092	2
0	8802	2129.123844964738	3
0	8806	2129.650221659372	4
0	8807	2131.30694942506	3
0	8816	2132.208624405051	2
0	8821	2133.333941375304	1
0	8825	2133.421614511899	2
0	8831	2134.266234640814	3
0	8833	2136.392972975065	4
0	8834	2136.620925759063	3
0	8839	2139.212502763971	2
0	8844	2141.771611852925	1
0	8852	2143.018871001093	2
0	8853	2143.588025105404	1
0	8857	2143.631855279331	2
0	8861	2143.84113756445	3
0	8862	2144.502826623581	2
0	8868	2145.848342259455	3
0	8873	2146.267782416719	4
0	8875	2147.644425667773	3
0	8880	2148.323506962991	2
0	8885	2148.50700988607	1
0	8894	2149.568389474658	0
0	8905	2150.662427246675	1
0	8907	2151.207430403624	0
0	8959	2161.694877399705	1
0	8962	2162.691965698029	0
0	8972	2164.505321862389	1
0	8974	2165.067112511505	2
0	8979	2165.530504141468	3
0	8981	2166.258006222076	2
0	8986	2166.27720892186	1
0	8992	2167.063033170319	0
0	9000	2168.321379884652	1
0	9002	2168.526651724425	0
0	9019	2169.305755848692	1
0	9021	2169.798081316746	0
0	9027	2170.260221117126	1
0	9028	2170.344699536785	0
0	9077	2178.552600948233	1
0	9078	2180.858693224042	0
0	9085	2181.705794880818	1
0	9088	2183.083565310481	0
0	9094	2183.428335506873	1
0	9096	2183.911363247313	0
0	9102	2183.954032559226	1
0	9104	2184.332381459585	2
0	9107	2185.998764767368	1
0	9114	2187.996295112644	0
0	9120	2188.096867638524	1
0	9121	2188.193414827473	0
0	9140	2190.294663062659	1
0	9142	2190.578977021309	0
0	9200	2204.798372111804	1
0	9201	2206.93822629557	0
0	9218	2208.909027899592	1
0	9222	2210.387667598942	0
0	9234	2213.256274889237	1
0	9235	2213.359978000501	0
0	9273	2223.874806706365	1
0	9274	2225.117818991951	0
0	9304	2229.817987666696	1
0	9307	2230.594746150022	0
0	9313	2231.224685845441	1
0	9319	2232.339233464046	0
0	9325	2233.914459497084	1
0	9327	2234.403492767513	0
0	9333	2234.479796553443	1
0	9335	2234.768010377726	2
0	9338	2236.782481785657	1
0	9343	2236.853807299228	0
0	9354	2238.006130788187	1
0	9356	2238.14322761112	2
0	9361	2240.15867641496	1
0	9366	2241.434415109155	0
0	9382	2244.310400620248	1
0	9383	2244.385167677206	0
0	9389	2244.45357030761	1
0	9391	2245.527464166466	2
0	9392	2245.562742869622	1
0	9397	2245.713160066994	0
0	9405	2248.892800454842	1
0	9406	2248.987953464203	0
0	9412	2249.226124197144	1
0	9413	2249.306013672386	0
0	9476	2266.223162147318	1
0	9477	2266.662163915134	0
0	9491	2267.946949814635	1
0	9493	2268.289658632265	2
0	9496	2269.240682990414	1
0	9501	2269.277245886475	0
0	9514	2272.294345421966	1
0	9516	2273.259192869494	2
0	9519	2274.411794976707	1
0	9525	2275.043584561283	2
0	9529	2275.790702195572	1
0	9534	2275.916543797653	0
0	9577	2291.612596469383	1
0	9580	2293.224673801185	2
0	9584	2296.45742487911	3
0	9585	2296.528095746387	2
0	9590	2297.570610928075	1
0	9595	2298.535236121972	0
0	9607	2299.475834505425	1
0	9608	2299.775447390584	0
0	9624	2302.271725811407	1
0	9625	2302.698607836452	0
0	9641	2308.304728621135	1
0	9642	2308.97017297264	0
0	9648	2309.144449506193	1
0	9649	2310.067152521302	0
0	9686	2319.072149103087	1
0	9690	2321.06701411935	0
0	9717	2326.544615251862	1
0	9718	2327.757429799725	0
0	9740	2330.220102252428	1
0	9741	2330.571298688967	0
0	9782	2343.565529455465	1
0	9783	2344.251455697589	0
0	9808	2349.192036458557	1
0	9809	2349.869072079963	0
0	9815	2350.059719893313	1
0	9817	2350.447225729302	0
0	9945	2391.426950241525	1
0	9949	2396.103865033542	0
0	9965	2398.063293039306	1
0	9966	2398.275053667277	0
0	9994	2405.879639099846	1
0	9997	2407.137328605544	0
0	10025	2410.946743399368	1
0	10029	2413.26603839341	2
0	10031	2413.319004751321	3
0	10033	2414.509043409269	4
0	10034	2415.308924498631	3
0	10044	2418.980346612032	4
0	10046	2422.149411468775	3
0	10054	2423.374762080922	2
0	10059	2423.379426336519	1
0	10065	2423.446599867551	2
0	10066	2423.676036496607	1
0	10071	2423.862717162216	0
0	10082	2424.828831245561	1
0	10086	2429.239709744119	0
0	10104	2431.269949694131	1
0	10106	2431.915997811921	2
0	10109	2432.513743788815	1
0	10115	2433.485773075717	0
0	10130	2435.521172470868	1
0	10131	2435.521521407191	0
0	10189	2450.047611630722	1
0	10191	2451.928593537231	2
0	10193	2453.370079982507	3
0	10194	2453.715469672286	2
0	10200	2454.580406901495	1
0	10207	2455.514109877639	2
0	10210	2456.690717519955	1
0	10218	2457.109342201192	2
0	10224	2457.691030692415	1
0	10229	2458.399018461293	0
0	10246	2461.989012339389	1
0	10250	2462.699622942882	0
0	10269	2465.445375457775	1
0	10274	2467.464433411749	0
0	10290	2470.079800625899	1
0	10297	2470.762554439327	2
0	10298	2471.545832678825	1
0	10303	2471.745221327861	0
0	10321	2473.360912596366	1
0	10323	2475.561852867801	2
0	10324	2476.354811585726	1
0	10334	2479.495362450328	2
0	10335	2480.117359959374	1
0	10341	2480.413694609159	2
0	10343	2481.369631467131	3
0	10346	2482.044872156294	4
0	10347	2482.101531331775	3
0	10352	2482.170500403342	2
0	10358	2483.357665531575	1
0	10371	2485.296374860929	0
0	10377	2485.437038643412	1
0	10380	2486.31873135822	0
0	10392	2488.075332401835	1
0	10393	2488.247209005859	0
0	10411	2489.820590470713	1
0	10414	2491.008061662522	2
0	10415	2491.75497223411	1
0	10420	2492.265157628993	0
0	10460	2498.453980856047	1
0	10461	2498.475919378836	0
0	10472	2499.350176918977	1
0	10474	2500.237453841132	2
0	10479	2501.696550418122	1
0	10487	2502.793291635561	2
0	10490	2503.968898685982	3
0	10491	2504.118179226956	2
0	10499	2505.659068669068	3
0	10501	2505.797201755521	4
0	10503	2506.136780224274	5
0	10505	2506.266302391733	6
0	10508	2509.950653335403	5
0	10513	2510.719289156515	4
0	10519	2510.928459582049	5
0	10523	2511.496291780743	6
0	10524	2511.574018671199	5
0	10531	2513.491793031938	4
0	10538	2514.049487192074	5
0	10539	2514.097091795882	4
0	10545	2514.367576833087	3
0	10552	2515.71611167955	4
0	10554	2515.949694618792	5
0	10555	2516.280809459554	4
0	10561	2518.410209762625	3
0	10568	2521.304308045249	2
0	10573	2522.288784629681	1
0	10578	2522.607331872257	0
0	10598	2526.316905726084	1
0	10599	2526.912193153395	0
0	10629	2538.091598609022	1
0	10630	2539.510147661344	0
0	10636	2540.200426472708	1
0	10638	2540.708822450028	2
0	10642	2542.38337918551	1
0	10647	2543.056855087662	0
0	10656	2543.817069299595	1
0	10657	2544.461964127068	0
0	10700	2557.578142269199	1
0	10703	2560.526185519564	0
0	10725	2565.547029302822	1
0	10726	2565.683589732732	0
0	10767	2578.304269110794	1
0	10768	2578.763453029134	0
0	10783	2582.373431365203	1
0	10784	2582.380687315392	0
0	10790	2583.062794607678	1
0	10794	2583.25933629849	2
0	10795	2584.588590887193	1
0	10802	2586.256492744843	0
0	10823	2589.758035043595	1
0	10825	2590.167611276177	0
0	10838	2592.631257768572	1
0	10839	2593.031038108008	0
0	10878	2600.066752576069	1
0	10881	2601.389558332534	0
0	10920	2611.97293340675	1
0	10921	2611.981280511862	0
0	10935	2616.602973661422	1
0	10936	2617.996099116113	0
0	10982	2631.387304283486	1
0	10984	2632.972217837268	0
0	11036	2647.867844425382	1
0	11037	2648.054086803598	0
0	11041	2649.374796393401	1
0	11045	2649.668889123668	0
0	11077	2659.389221403904	1
0	11079	2660.931620653711	2
0	11087	2663.286551039934	3
0	11088	2663.320455176552	2
0	11093	2663.896569600387	1
0	11100	2665.252432718359	0
0	11116	2667.299684520514	1
0	11117	2667.370411565044	0
0	11175	2693.661553478071	1
0	11176	2695.154445607046	0
0	11190	2698.682956452615	1
0	11192	2699.009988055204	2
0	11193	2701.10919885289	1
0	11199	2702.840799356372	0
0	11205	2703.020992921574	1
0	11207	2703.957590906226	0
0	11226	2711.147258574619	1
0	11228	2711.185878190358	2
0	11230	2711.939897383973	3
0	11237	2713.684038668862	2
0	11243	2713.782744340405	1
0	11252	2714.925530546019	2
0	11253	2716.487536346019	1
0	11258	2716.624009241479	0
0	11297	2725.55697384345	1
0	11301	2729.508789998908	0
0	11307	2729.663378152184	1
0	11308	2730.027542723726	0
0	11323	2731.297818885225	1
0	11324	2731.637428676309	0
0	11357	2741.686968585045	1
0	11358	2741.862730034743	0
0	11372	2743.929680884528	1
0	11374	2744.64842377151	2
0	11375	2745.462154773941	1
0	11381	2747.202059231567	0
0	11403	2752.201998262273	1
0	11404	2752.202761856664	0
0	11435	2763.927394971076	1
0	11436	2765.793452984372	0
0	11459	2777.375313886651	1
0	11460	2777.447885757712	0
0	11492	2782.528056792891	1
0	11494	2782.738118188017	2
0	11496	2783.249306448979	3
0	11497	2783.45587731608	2
0	11502	2784.147559366656	1
0	11507	2784.401969986475	0
0	11530	2787.354004587811	1
0	11532	2787.510190079519	2
0	11534	2787.603012773307	3
0	11538	2789.910624834735	2
0	11543	2791.219806033581	1
0	11548	2791.564527891389	0
0	11554	2792.028300879813	1
0	11556	2792.124389090143	0
0	11575	2798.070578509891	1
0	11576	2798.949647887378	0
0	11588	2800.071154179265	1
0	11589	2801.008048826484	0
0	11623	2817.109172358166	1
0	11626	2818.410291448424	0
0	11640	2830.142354386755	1
0	11642	2830.315432565711	2
0	11643	2831.004014474522	1
0	11651	2831.983099033706	0
0	11666	2834.323111040743	1
0	11667	2834.690838349253	0
0	11685	2838.16141952871	1
0	11686	2838.383796128852	0
0	11699	2839.304165870146	1
0	11700	2839.337642151796	0
0	11711	2840.71462372096	1
0	11712	2841.772912186627	0
0	11723	2844.314382954777	1
0	11726	2845.278063789409	0
0	11736	2846.071653465994	1
0	11739	2846.254448440721	0
0	11746	2846.832643207888	1
0	11747	2847.180183687933	0
0	11764	2849.271979157779	1
0	11767	2849.877814538576	0
0	11808	2860.485547175179	1
0	11809	2860.584450946977	0
0	11846	2865.899189329995	1
0	11847	2868.284181054314	0
0	11854	2870.21989753495	1
0	11855	2872.350399924427	0
0	11862	2874.076446258398	1
0	11863	2874.664587385644	0
0	11879	2878.778373808651	1
0	11880	2878.927378407395	0
0	11905	2884.368583404606	1
0	11906	2885.71656670052	0
0	11923	2889.871604022918	1
0	11925	2889.969440249458	2
0	11930	2894.97793888587	1
0	11936	2895.667117216066	0
0	11942	2895.900013482879	1
0	11945	2897.083067333075	2
0	11946	2897.50797456599	1
0	11952	2898.181072170067	0
0	11979	2904.566661565384	1
0	11982	2906.431465307448	0
0	12013	2915.466491718998	1
0	12018	2916.015317263035	2
0	12020	2917.31357084567	3
0	12021	2918.103899057743	2
0	12029	2918.634480409735	1
0	12034	2919.228177176724	0
0	12040	2919.993202529865	1
0	12041	2920.881610134152	0
0	12082	2933.25445059807	1
0	12083	2933.924873621638	0
0	12112	2940.59139892631	1
0	12116	2942.47349744524	2
0	12117	2942.891793802475	1
0	12122	2944.522773809185	0
0	12128	2944.534830444099	1
0	12131	2946.481603366544	0
0	12144	2950.794287391538	1
0	12147	2952.49814749474	2
0	12148	2952.526654334236	1
0	12153	2952.686534896826	0
0	12245	2974.1342485392	1
0	12246	2974.561997245161	0
0	12250	2975.501224453931	1
0	12255	2977.109013431	0
0	12262	2978.780485435991	1
0	12263	2980.629378928344	0
0	12267	2980.739984779367	1
0	12271	2981.932240375283	2
0	12273	2983.082539234097	3
0	12275	2984.9411790481	4
0	12277	2985.991845550623	5
0	12282	2988.040295815368	6
0	12283	2989.481151193701	5
0	12288	2990.030641121043	4
0	12294	2991.285744149716	5
0	12295	2991.644532423549	4
0	12302	2994.289637986878	3
0	12308	2994.673257009242	2
0	12313	2994.763430605476	1
0	12318	2997.049606835241	0
0	12324	2999.514678272711	1
0	12325	2999.958745604486	0
0	12364	3005.60598918501	1
0	12365	3006.222244878533	0
0	12392	3012.945591013644	1
0	12397	3015.670132421417	2
0	12398	3016.764158058614	1
0	12405	3019.351021762999	0
0	12411	3019.805685603686	1
0	12413	3020.331052702973	0
0	12435	3023.231485876091	1
0	12438	3025.218873067474	0
0	12452	3028.248910006325	1
0	12458	3029.898254698269	0
0	12476	3034.44131596336	1
0	12478	3034.501818644876	2
0	12480	3034.854078711703	3
0	12484	3035.544196931605	4
0	12486	3035.553859319321	5
0	12487	3036.173276458196	4
0	12492	3036.35387819683	3
0	12499	3036.931097976147	4
0	12501	3037.097701897798	3
0	12508	3037.689444851824	2
0	12513	3038.02649242198	1
0	12519	3038.193886771686	2
0	12520	3038.45286721574	1
0	12527	3038.990332134817	0
0	12538	3040.094240761893	1
0	12541	3041.608291845415	0
0	12565	3047.083942894465	1
0	12566	3047.085067700063	0
0	12572	3047.400160763307	1
0	12574	3048.500372682616	0
0	12587	3049.209427731903	1
0	12588	3049.253870112089	0
0	12595	3049.728229427598	1
0	12596	3050.0797644151	0
0	12624	3054.830138265373	1
0	12625	3055.426962866754	0
0	12634	3056.147870879707	1
0	12635	3059.208339943197	0
0	12660	3070.357431928052	1
0	12662	3070.561614983916	2
0	12663	3072.885133647582	1
0	12671	3074.292754520679	0
0	12681	3075.863696436082	1
0	12684	3077.367261835834	0
0	12693	3078.036881447304	1
0	12696	3078.817810685646	0
0	12721	3087.83635482943	1
0	12722	3088.092146625935	0
0	12745	3096.183055311516	1
0	12746	3096.578878727948	0
0	12812	3119.778065556487	1
0	12813	3121.104666439422	0
0	12852	3134.205538906216	1
0	12853	3135.29555217218	0
0	12870	3140.251100214815	1
0	12872	3140.257845087591	2
0	12873	3141.731405079671	1
0	12880	3142.071705498341	2
0	12884	3143.971734424659	1
0	12890	3144.413090937293	0
0	12914	3148.940977630431	1
0	12915	3149.789372745611	0
0	12921	3149.792490047204	1
0	12923	3152.208726115536	0
0	12930	3155.294782999702	1
0	12931	3155.701278303997	0
0	12955	3166.778787196628	1
0	12956	3167.88533254899	0
0	12971	3171.623770066358	1
0	12973	3171.693798636522	2
0	12974	3172.785551785946	1
0	12980	3174.73355600261	0
0	13012	3193.226351221735	1
0	13016	3193.54598225784	2
0	13017	3193.582787716414	1
0	13025	3194.898024436693	2
0	13026	3195.001123665234	1
0	13031	3197.251680906299	0
0	13042	3197.925343051842	1
0	13045	3200.248588320922	0
0	13051	3200.548471733655	1
0	13052	3201.906118920494	0
0	13067	3202.390864206507	1
0	13069	3203.528578522337	0
0	13075	3203.827765073002	1
0	13077	3204.324731689134	0
0	13084	3205.795129304416	1
0	13086	3206.737268676913	0
0	13121	3216.896595965532	1
0	13123	3217.258227935055	2
0	13124	3218.767765895086	1
0	13130	3218.879947056939	2
0	13132	3218.952034897187	3
0	13133	3219.357849875969	2
0	13140	3222.329106928068	1
0	13145	3222.458266852307	0
0	13169	3226.476717537841	1
0	13171	3226.512557200975	2
0	13172	3227.200741957073	1
0	13181	3230.1885503645	0
0	13300	3267.680313629659	1
0	13303	3268.913069447995	0
0	13324	3274.356329544066	1
0	13326	3274.365079744299	2
0	13329	3275.351031424988	3
0	13330	3275.58537664779	2
0	13335	3276.331280198949	1
0	13340	3276.406172004077	0
0	13350	3277.848751942623	1
0	13352	3278.350711473415	2
0	13354	3279.223448215876	3
0	13355	3279.246391914487	2
0	13360	3279.389844877978	1
0	13367	3280.068000864157	2
0	13368	3280.137955060947	1
0	13373	3280.139339286182	0
0	13388	3282.777311692759	1
0	13389	3284.995484563798	0
0	13401	3285.541925791873	1
0	13403	3285.912687958713	2
0	13404	3286.30602837083	1
0	13410	3286.696607378254	2
0	13413	3288.797423767916	3
0	13414	3289.423485041549	2
0	13421	3291.51526098866	3
0	13422	3295.303814370504	2
0	13427	3296.226004779245	1
0	13432	3296.785328162452	0
0	13438	3297.630487582314	1
0	13439	3299.017607928897	0
0	13464	3308.819909194101	1
0	13466	3309.011004526519	2
0	13467	3310.416464613291	1
0	13473	3311.733871426112	0
0	13480	3312.645278101193	1
0	13481	3313.185056337246	0
0	13522	3328.80885260105	1
0	13523	3328.915875115223	0
0	13540	3336.423357683435	1
0	13541	3337.079824331919	0
0	13586	3350.941851507006	1
0	13587	3350.990262517292	0
0	13593	3351.377060988849	1
0	13597	3353.127277639661	0
0	13611	3357.574238741122	1
0	13613	3358.093756441569	2
0	13614	3358.159160220914	1
0	13620	3359.024674731527	0
0	13642	3364.717055382308	1
0	13644	3365.055850055595	0
0	13650	3365.166675977145	1
0	13651	3365.395399548322	0
0	13717	3385.245179774275	1
0	13718	3386.022030004815	0
0	13731	3387.700178856842	1
0	13733	3388.095281486475	2
0	13736	3390.04897378404	3
0	13737	3390.159613481759	2
0	13745	3391.061623340208	1
0	13752	3391.976788260181	0
0	13758	3392.41471315593	1
0	13760	3392.535383851953	2
0	13761	3392.86476210897	1
0	13767	3393.154894515825	0
0	13779	3394.696074156731	1
0	13780	3394.752426180302	0
0	13800	3397.491174658383	1
0	13802	3398.426658254271	2
0	13808	3402.269632916598	3
0	13811	3402.890944214178	2
0	13816	3403.676161529047	1
0	13822	3404.44886622629	0
0	13837	3405.417740860458	1
0	13840	3406.627337841755	0
0	13846	3406.837887193073	1
0	13849	3407.499469898179	0
0	13868	3412.664620367934	1
0	13871	3413.527763222739	2
0	13872	3413.633756762845	1
0	13878	3413.734123605278	2
0	13883	3415.015665119562	1
0	13897	3417.120195798154	2
0	13898	3417.282691955597	1
0	13903	3418.245153224514	0
0	13914	3420.073776851003	1
0	13919	3422.850491362572	0
0	13928	3423.298986690169	1
0	13935	3425.952541060666	2
0	13937	3426.951199828091	1
0	13942	3427.510518240312	0
0	13959	3432.629783730674	1
0	13964	3434.397862557055	0
0	13980	3436.200370317016	1
0	13982	3436.610798675024	2
0	13985	3437.855123929646	1
0	13990	3437.867525511376	0
0	13996	3438.090176401386	1
0	13997	3439.162167726692	0
0	14006	3439.60480217009	1
0	14009	3440.284015458068	0
0	14045	3445.876597850478	1
0	14046	3446.031167044353	0
0	14067	3458.096311566557	1
0	14070	3458.835730189767	0
0	14085	3461.751496657628	1
0	14086	3463.675268056166	0
0	14150	3476.896341990313	1
0	14151	3477.621519599421	0
0	14166	3480.342617904228	1
0	14167	3481.143738563957	0
0	14192	3487.685067977657	1
0	14195	3489.649672710589	0
0	14214	3491.295938525633	1
0	14215	3492.275308822688	0
0	14225	3496.219649295778	1
0	14227	3497.582852045281	2
0	14230	3498.518164920869	1
0	14235	3499.20941791806	0
0	14245	3500.488252905552	1
0	14249	3502.155727393634	0
0	14288	3509.427186082663	1
0	14291	3511.282366571729	2
0	14293	3511.362226150797	3
0	14294	3512.730867385505	2
0	14299	3512.952666409259	1
0	14304	3513.23748344347	0
0	14322	3519.70216917658	1
0	14326	3521.277374079948	0
0	14338	3526.313892913583	1
0	14340	3526.822917080227	2
0	14341	3527.191574751277	1
0	14346	3527.627118210784	0
0	14354	3528.03568955358	1
0	14355	3528.03646834617	0
0	14402	3536.653006729167	1
0	14403	3538.499034185936	0
0	14457	3561.12942317797	1
0	14458	3561.580444438852	0
0	14480	3568.566389976019	1
0	14481	3572.092139586135	0
0	14519	3585.468555384475	1
0	14520	3586.115974030354	0
0	14526	3586.17815380355	1
0	14527	3587.271541402612	0
0	14586	3608.70890159081	1
0	14589	3609.025702845297	0
0	14665	3622.56832654679	1
0	14669	3627.543690550515	0
0	14698	3633.51925336946	1
0	14699	3633.675818937886	0
0	14775	3647.865753781676	1
0	14777	3650.945090871299	0
0	14788	3653.29568676655	1
0	14793	3655.32625002232	0
0	14800	3655.971117484579	1
0	14801	3656.118241345626	0
0	14946	3695.763231252504	1
0	14947	3695.821110379697	0
0	14958	3696.75678960075	1
0	14959	3696.980979376199	0
0	14967	3698.859574455032	1
0	14968	3699.398500187724	0
0	14988	3706.332185473924	1
0	14989	3706.585172913948	0
0	15008	3713.638685452186	1
0	15010	3715.662915141532	0
0	15017	3715.873554677914	1
0	15018	3716.065814328791	0
0	15024	3716.096555039175	1
0	15025	3716.492521717226	0
0	15032	3718.569481828434	1
0	15033	3719.284459838878	0
0	15096	3732.582597402857	1
0	15097	3733.131396971042	0
0	15103	3733.234998359095	1
0	15104	3733.236066049858	0
0	15158	3743.982974674566	1
0	15161	3744.822393090725	2
0	15163	3745.024716087417	3
0	15165	3745.96778316932	4
0	15166	3746.055859681459	3
0	15173	3747.230070482433	2
0	15179	3747.529661381113	3
0	15181	3747.76558312062	2
0	15187	3747.8379136062	3
0	15190	3749.071704380881	2
0	15195	3749.358079051374	1
0	15201	3749.982354084254	2
0	15204	3751.235266632468	1
0	15212	3751.535440839654	2
0	15216	3753.296260258608	1
0	15221	3755.398677601328	0
0	15225	3756.179290971517	1
0	15228	3758.094993271479	0
0	15232	3758.238727338098	1
0	15241	3759.841265182776	2
0	15243	3760.213085388045	3
0	15244	3760.501697476475	2
0	15249	3760.61508385723	1
0	15255	3761.00044000057	2
0	15258	3761.86218560449	1
0	15262	3762.069296041248	2
0	15264	3762.072877504417	3
0	15267	3762.137571659197	2
0	15272	3762.210106652781	1
0	15280	3765.290174217776	0
0	15305	3767.562050447636	1
0	15307	3768.058685191727	0
0	15328	3777.655226781549	1
0	15329	3779.56171596197	0
0	15339	3783.322824826275	1
0	15341	3783.597294754995	2
0	15342	3783.832312487733	1
0	15347	3783.938083800034	0
0	15402	3796.713312728137	1
0	15404	3797.108479641635	2
0	15405	3797.324188207283	1
0	15413	3798.944800479795	0
0	15425	3800.433958528533	1
0	15432	3802.601914709846	0
0	15438	3803.001091676923	1
0	15440	3806.235074712087	0
0	15447	3807.537280881632	1
0	15449	3807.683456552627	2
0	15452	3808.264948285317	1
0	15457	3809.264435780948	0
0	15474	3810.097173960459	1
0	15477	3810.421033961165	0
0	15495	3811.818304043904	1
0	15499	3813.262455522113	0
0	15517	3817.879858553282	1
0	15523	3819.569896725703	2
0	15525	3820.782948549003	1
0	15536	3825.838864338426	0
0	15542	3826.067150036392	1
0	15544	3827.154382955275	0
0	15582	3832.564803631927	1
0	15584	3834.450111392103	2
0	15588	3836.079148720313	1
0	15594	3836.304562607625	0
0	15649	3852.961212785389	1
0	15653	3855.793231393038	2
0	15655	3856.252600415161	3
0	15656	3856.599661416781	2
0	15662	3856.922936962732	1
0	15670	3858.331428113281	0
0	15701	3865.937120389483	1
0	15706	3869.017534588017	0
0	15717	3870.593542161056	1
0	15721	3871.525816069441	0
0	15750	3878.200187558207	1
0	15754	3881.39468137469	0
0	15770	3888.553738324857	1
0	15771	3888.661001391619	0
0	15777	3888.725211374099	1
0	15781	3890.22341964939	2
0	15782	3890.311128188021	1
0	15787	3890.753192352465	0
0	15813	3895.43616859127	1
0	15818	3895.719123532139	2
0	15821	3897.394387968765	1
0	15826	3897.612471237898	0
0	15849	3902.515978170521	1
0	15850	3903.303669952671	0
0	15883	3910.385419696586	1
0	15884	3911.363660976582	0
0	15924	3920.806662637094	1
0	15926	3920.856973484889	2
0	15927	3921.784436668609	1
0	15933	3921.820401947459	2
0	15934	3921.827191912864	1
0	15939	3921.961547736987	0
0	15962	3936.793416939379	1
0	15963	3937.32152229301	0
0	15981	3943.279676688306	1
0	15982	3943.30626063599	0
0	16025	3954.574159068797	1
0	16026	3954.736960652253	0
0	16049	3965.508806714112	1
0	16050	3966.942057781251	0
0	16066	3977.416225210341	1
0	16068	3978.240492411102	2
0	16070	3978.416755649562	3
0	16071	3979.102401827216	2
0	16077	3979.424533030329	1
0	16082	3981.497331722435	0
0	16203	4019.831149591831	1
0	16205	4020.251987855595	2
0	16207	4020.600810432711	3
0	16208	4022.417164672131	2
0	16213	4022.495064403492	1
0	16220	4023.013159207074	2
0	16224	4023.848177766446	3
0	16226	4024.247229627617	4
0	16228	4025.223334172398	5
0	16229	4026.253624201856	4
0	16234	4026.815913579239	3
0	16241	4027.421255319953	2
0	16247	4028.422434618129	3
0	16249	4028.523514776879	4
0	16250	4028.975818895126	3
0	16256	4029.011465779523	4
0	16257	4029.394019512651	3
0	16261	4033.100298260607	4
0	16265	4033.735613932144	3
0	16275	4035.093680178663	2
0	16281	4036.683866915133	1
0	16290	4036.84595766014	0
0	16313	4040.62696745503	1
0	16316	4041.214337243489	2
0	16323	4042.407204368917	3
0	16330	4044.887434738542	4
0	16332	4045.259193209191	5
0	16333	4046.075215796864	4
0	16340	4047.539703357716	5
0	16341	4047.904861398791	4
0	16346	4049.091739600869	3
0	16351	4050.342128932142	2
0	16357	4050.369679975778	3
0	16358	4050.766527381579	2
0	16363	4050.976863245786	1
0	16367	4051.518866621719	2
0	16372	4052.362601574865	3
0	16373	4052.516315088509	2
0	16379	4053.94280149132	1
0	16384	4054.07822915499	0
0	16409	4058.868517674109	1
0	16411	4059.618226853855	0
0	16451	4068.096002558695	1
0	16453	4069.069223843365	0
0	16459	4069.848672177897	1
0	16461	4070.278127768627	0
0	16468	4070.916640614221	1
0	16469	4071.029811844594	0
0	16497	4078.593899528302	1
0	16498	4079.194534499187	0
0	16514	4086.71987111906	1
0	16515	4086.985333509245	0
0	16529	4088.884717000382	1
0	16531	4089.603527485731	2
0	16533	4090.121639696927	3
0	16539	4092.838561611943	2
0	16544	4092.945369056012	1
0	16549	4093.736812603423	0
0	16572	4099.101739686623	1
0	16578	4103.887058676181	2
0	16580	4103.973182079933	3
0	16585	4109.07951607891	2
0	16590	4110.538202266256	1
0	16595	4110.633330648592	0
0	16599	4112.995839786934	1
0	16603	4113.63031359434	2
0	16608	4116.986653603222	1
0	16613	4117.124378680733	0
0	16624	4118.775719884278	1
0	16629	4120.677692742596	2
0	16630	4121.939928913963	1
0	16635	4123.4579855979	0
0	16665	4125.686953910312	1
0	16666	4125.819488517287	0
0	16692	4136.952430241971	1
0	16695	4140.950544230262	0
0	16710	4142.962198023036	1
0	16713	4143.049341346189	0
0	16733	4145.558923706633	1
0	16736	4147.068984278988	0
0	16765	4157.252230521148	1
0	16766	4157.653784986315	0
0	16772	4157.743910413766	1
0	16773	4157.961376516228	0
0	16779	4158.445906997555	1
0	16782	4159.200894944393	2
0	16784	4159.777727392285	1
0	16790	4159.985550795149	2
0	16792	4160.389435905657	3
0	16794	4161.12405398714	2
0	16804	4162.461314295597	1
0	16811	4163.007050724499	0
0	16822	4167.906684539281	1
0	16826	4168.420582495768	2
0	16830	4169.723563394328	1
0	16835	4170.62585499214	0
0	16858	4171.664749770923	1
0	16861	4172.393671911916	0
0	16867	4172.748401281093	1
0	16872	4176.027863193195	0
0	16898	4179.793088697193	1
0	16899	4180.159576926485	0
0	16905	4181.221981460793	1
0	16909	4182.468065955714	0
0	16986	4194.836513313662	1
0	16988	4195.641830095151	0
0	17031	4200.215194393094	1
0	17032	4200.459363681778	0
0	17036	4200.644460205756	1
0	17038	4200.847275551192	2
0	17041	4202.232703133381	1
0	17049	4204.740090885348	2
0	17050	4204.769228936524	1
0	17056	4204.922754943744	2
0	17059	4205.533366027328	1
0	17065	4206.1237500665	0
0	17073	4207.70791055896	1
0	17079	4209.163429012843	0
0	17092	4211.223229712989	1
0	17093	4211.490648465546	0
0	17099	4211.564724531843	1
0	17101	4212.622761157946	0
0	17149	4219.793703021623	1
0	17152	4222.384396539991	0
0	17205	4238.054303133487	1
0	17207	4238.410507526742	0
0	17214	4238.910936327098	1
0	17215	4239.747215415125	0
0	17221	4240.271908271814	1
0	17224	4240.54165249437	0
0	17260	4246.448228709763	1
0	17266	4248.467206234295	2
0	17267	4248.716463274038	1
0	17273	4248.890879673291	0
0	17307	4259.836548218775	1
0	17311	4261.742837687102	2
0	17312	4262.052501272299	1
0	17319	4262.304642060542	2
0	17323	4263.379333186863	3
0	17324	4263.682247754651	2
0	17331	4264.569834251673	1
0	17337	4264.700733441092	2
0	17338	4264.77419942265	1
0	17348	4266.029489422114	2
0	17350	4267.352236020804	1
0	17359	4268.561807726439	0
0	17452	4289.495816330141	1
0	17453	4290.133130575518	0
0	17479	4296.538884994942	1
0	17480	4296.978311900594	0
0	17488	4301.018484359039	1
0	17489	4301.150379788752	0
0	17501	4303.149964910139	1
0	17505	4303.600625854252	0
0	17512	4305.332480276128	1
0	17517	4307.321171565833	0
0	17524	4307.901863060894	1
0	17525	4308.642348168761	0
0	17542	4312.297660999414	1
0	17543	4312.80097453054	0
0	17549	4312.889051600313	1
0	17553	4316.522307946264	0
0	17581	4321.154461222615	1
0	17586	4322.324789696096	0
0	17606	4326.601848837702	1
0	17608	4328.445704900274	0
0	17619	4329.054801942869	1
0	17622	4330.307487409927	2
0	17624	4330.509728706803	1
0	17631	4331.054419718893	0
0	17673	4343.351503966575	1
0	17681	4346.94193714618	2
0	17683	4347.33607808302	1
0	17690	4348.502658657149	2
0	17691	4351.218072676304	1
0	17697	4352.361545435073	2
0	17700	4353.005606127263	1
0	17706	4353.786600847227	2
0	17708	4354.14194624311	1
0	17713	4354.20317431907	0
0	17736	4357.57438825354	1
0	17740	4359.84663662815	2
0	17742	4360.728149198376	3
0	17743	4361.080226359705	2
0	17749	4361.385569023386	3
0	17752	4363.410072639134	2
0	17757	4363.891329858561	1
0	17761	4364.120914246751	2
0	17764	4364.688097310273	1
0	17769	4365.883269191692	0
0	17778	4367.160873521258	1
0	17782	4368.012492135615	2
0	17786	4368.89215243339	3
0	17791	4370.34044917368	4
0	17792	4371.504149493718	3
0	17797	4372.107662735042	2
0	17802	4372.746700046331	1
0	17808	4374.658317043994	0
0	17815	4375.167071309449	1
0	17817	4375.441168994194	2
0	17818	4376.467538076797	1
0	17823	4377.342462628951	0
0	17840	4380.473845142682	1
0	17842	4385.088418306975	2
0	17846	4386.692299853008	3
0	17851	4386.980860210976	2
0	17858	4388.680539119039	1
0	17862	4388.798228154523	2
0	17868	4391.10783470968	3
0	17873	4392.777060533878	2
0	17881	4393.408970868957	3
0	17883	4393.65446437579	4
0	17884	4393.785794064919	3
0	17892	4395.076752564252	2
0	17899	4395.555839721263	3
0	17901	4396.219765628232	2
0	17906	4396.504695271058	1
0	17912	4396.540790612367	2
0	17913	4396.646573767002	1
0	17919	4396.819951811495	2
0	17921	4397.605597448144	3
0	17922	4398.676652694057	2
0	17928	4399.755866448327	1
0	17934	4402.714797912784	0
0	17940	4404.139727194041	1
0	17941	4404.592273797238	0
0	17958	4405.7147452218	1
0	17959	4406.751461781038	0
0	17963	4407.39407785113	1
0	17966	4409.850477680898	0
0	17972	4410.538213966355	1
0	17973	4411.204930788093	0
0	17977	4411.349786615539	1
0	17983	4414.337297617782	0
0	18008	4418.623062172894	1
0	18009	4418.957097187862	0
0	18024	4423.220175497232	1
0	18029	4426.416908941098	2
0	18031	4426.640363041662	3
0	18032	4427.136935042974	2
0	18039	4428.332885033728	3
0	18041	4428.496410127693	4
0	18042	4429.041529868499	3
0	18049	4430.195857296771	2
0	18056	4432.206931873348	1
0	18063	4435.516309390052	0
0	18085	4437.765670848052	1
0	18086	4438.112599693757	0
0	18097	4438.881610521457	1
0	18099	4439.201664170945	2
0	18101	4439.576977990944	3
0	18105	4441.620374895116	2
0	18110	4441.806079706178	1
0	18115	4442.229678739185	0
0	18124	4443.28874976641	1
0	18126	4443.390719418676	2
0	18128	4443.530567487187	3
0	18135	4445.891450230697	4
0	18137	4446.263125430684	5
0	18142	4447.808117192854	6
0	18144	4448.979817089167	5
0	18150	4450.779113023806	4
0	18156	4451.127144274383	5
0	18159	4452.394342170661	6
0	18160	4453.225378361964	5
0	18166	4454.404446264278	6
0	18170	4455.354238482774	5
0	18175	4456.243557370576	4
0	18180	4457.28252164812	3
0	18185	4457.419162024502	2
0	18192	4458.996145667556	3
0	18195	4459.676642047472	4
0	18198	4460.713589087575	5
0	18201	4462.103042145787	6
0	18202	4462.297761846179	5
0	18207	4462.948982982675	4
0	18212	4463.299968449787	3
0	18220	4465.005441849739	2
0	18225	4465.348002959158	1
0	18233	4467.346312771109	2
0	18234	4467.971605505188	1
0	18239	4469.100527879392	0
0	18243	4470.92977368998	1
0	18247	4471.926479537789	2
0	18251	4474.281448462038	3
0	18253	4475.238382501663	4
0	18256	4475.797924071204	3
0	18264	4477.53629237995	4
0	18265	4477.938165989626	3
0	18273	4479.398056720687	2
0	18279	4479.401241438577	3
0	18280	4480.914655634466	2
0	18288	4481.471877430953	1
0	18293	4481.502920250716	0
0	18300	4482.541498592286	1
0	18302	4482.854962799841	0
0	18310	4483.64409778435	1
0	18312	4484.821525231202	0
0	18318	4485.034476914284	1
0	18321	4485.667764336241	2
0	18322	4486.490923130907	1
0	18329	4487.206334990076	0
0	18335	4487.954987296437	1
0	18336	4488.244564332342	0
0	18348	4489.092548957287	1
0	18354	4491.033339812113	0
0	18368	4493.173045932019	1
0	18369	4493.335590251773	0
0	18381	4493.687805091835	1
0	18382	4493.931934012394	0
0	18395	4494.916059303701	1
0	18397	4496.18762440716	0
0	18404	4497.922135243522	1
0	18406	4498.809178635185	2
0	18410	4502.316342290368	3
0	18411	4503.774262882818	2
0	18416	4504.373266217564	1
0	18421	4505.039052519777	0
0	18428	4506.313266705543	1
0	18429	4508.175792382321	0
0	18466	4511.073439266871	1
0	18470	4512.079968994868	2
0	18473	4515.376702779646	3
0	18476	4515.977572291044	2
0	18483	4516.580443954661	3
0	18484	4517.469223034339	2
0	18489	4517.696031227514	1
0	18495	4518.859017595802	0
0	18517	4519.834492240588	1
0	18522	4521.392028396167	0
0	18587	4545.445497872574	1
0	18588	4548.89768590923	0
0	18603	4553.837753971461	1
0	18604	4554.923095317619	0
0	18611	4555.333259116811	1
0	18612	4555.455201551021	0
0	18643	4568.862145756264	1
0	18645	4569.351981970562	2
0	18646	4569.608282192155	1
0	18653	4570.357239537267	0
0	18681	4575.362347155065	1
0	18683	4575.535829904873	2
0	18684	4576.41044622695	1
0	18690	4577.75372365737	0
0	18696	4578.103704291221	1
0	18698	4578.1368388175	2
0	18699	4578.18316849982	1
0	18704	4579.850057966313	0
0	18717	4581.283508929823	1
0	18720	4583.139425048035	0
0	18726	4585.069464128454	1
0	18727	4585.207204433731	0
0	18738	4587.128155732994	1
0	18740	4588.163497083835	0
0	18767	4592.707675006306	1
0	18775	4595.753941212466	2
0	18776	4596.964018533154	1
0	18782	4597.044474770522	0
0	18788	4597.561202400811	1
0	18789	4598.136914178418	0
0	18819	4605.713001391249	1
0	18821	4605.790425045002	2
0	18824	4606.887882678228	1
0	18829	4607.101910247819	0
0	18840	4607.49374572561	1
0	18841	4607.904793112494	0
0	18859	4609.717571608032	1
0	18860	4610.197547476607	0
0	18867	4610.410966770722	1
0	18869	4612.507910288039	0
0	18882	4615.770774557975	1
0	18884	4616.099271712912	0
0	18902	4621.012139644394	1
0	18906	4622.891293192731	0
0	18918	4625.423228801824	1
0	18922	4626.239679801579	0
0	18928	4627.348984308103	1
0	18931	4628.541631383107	0
0	18945	4630.858405313469	1
0	18946	4631.582817736318	0
0	18953	4632.016055916092	1
0	18954	4632.055663914294	0
0	18966	4634.882924038664	1
0	18970	4636.723420890049	2
0	18971	4637.066437088959	1
0	18976	4638.040876723647	0
0	18990	4639.978752663802	1
0	18991	4640.599711760949	0
0	19014	4650.730796522733	1
0	19019	4651.428317420392	0
0	19032	4653.142714016952	1
0	19034	4653.282042158066	2
0	19040	4656.396390866664	3
0	19041	4656.73015788471	2
0	19046	4657.253288427645	1
0	19051	4657.364854179988	0
0	19068	4662.672354412342	1
0	19071	4663.063602050059	0
0	19083	4664.706196456885	1
0	19085	4666.348187499176	0
0	19146	4688.121164423026	1
0	19147	4688.642168074678	0
0	19162	4694.528395990143	1
0	19165	4697.775518581199	0
0	19198	4706.486324234428	1
0	19199	4706.701109125757	0
0	19211	4708.092031112966	1
0	19213	4709.487994679033	0
0	19219	4709.995643107711	1
0	19220	4710.932820891436	0
0	19226	4711.896638962856	1
0	19227	4713.178541608717	0
0	19252	4717.129459741368	1
0	19253	4718.598168430828	0
0	19280	4724.996989656958	1
0	19284	4726.651891250907	0
0	19291	4728.264851081883	1
0	19292	4729.110214063702	0
0	19306	4732.433764573305	1
0	19308	4732.516908532229	2
0	19309	4732.798767631348	1
0	19316	4733.589571421021	0
0	19330	4735.778856261356	1
0	19331	4735.822652973153	0
0	19431	4762.354974265296	1
0	19432	4762.665373954825	0
0	19462	4784.311286812128	1
0	19464	4784.448827351909	2
0	19465	4785.08861214788	1
0	19471	4785.862487301485	0
0	19477	4786.052445324906	1
0	19478	4786.19788174252	0
0	19498	4791.521659328359	1
0	19505	4793.400531476705	2
0	19506	4794.278574161819	1
0	19511	4794.767217362899	0
0	19554	4801.559533322859	1
0	19555	4802.626350033734	0
0	19579	4808.622225528392	1
0	19582	4809.389447328126	0
0	19616	4816.691625381663	1
0	19621	4819.245759789763	2
0	19624	4820.510188781741	1
0	19629	4820.947151310839	0
0	19672	4835.074200286276	1
0	19674	4836.719288355863	2
0	19678	4837.309408727834	3
0	19679	4837.626098682454	2
0	19685	4837.861689651962	3
0	19690	4839.425478068924	4
0	19692	4841.252479409129	3
0	19698	4846.177251577141	2
0	19705	4846.567539731604	3
0	19707	4847.532010645753	2
0	19714	4848.278487555649	1
0	19721	4848.603851313171	0
0	19775	4859.626967717532	1
0	19776	4862.819352107158	0
0	19785	4864.546063612336	1
0	19791	4865.584910176615	0
0	19805	4867.471536590936	1
0	19808	4868.458653284148	0
0	19834	4874.606556247673	1
0	19836	4875.46505717134	2
0	19838	4876.42160475843	3
0	19844	4878.486687932593	2
0	19850	4878.892481419367	3
0	19851	4879.104621063002	2
0	19858	4879.732297870885	3
0	19860	4879.943447859986	2
0	19865	4879.965876252327	1
0	19871	4880.947301688983	2
0	19873	4882.314320892933	1
0	19880	4883.858275084109	0
0	19902	4887.169906543664	1
0	19904	4887.240025734798	0
0	19911	4888.391145252511	1
0	19912	4888.751720500978	0
0	19948	4896.710330950517	1
0	19950	4897.667288800679	0
0	19967	4900.821771843631	1
0	19968	4900.984440530898	0
0	19976	4901.808306237632	1
0	19980	4903.079363364534	0
0	19986	4903.779333851998	1
0	19987	4904.098312598266	0
0	20000	4905.763293533968	1
0	20002	4906.713289584079	0
0	20009	4907.307000209623	1
0	20010	4907.667923992567	0
0	20021	4907.83675968324	1
0	20026	4909.845017158426	0
0	20033	4911.191483868359	1
0	20036	4912.264191577064	0
0	20043	4912.851601559926	1
0	20045	4912.984696928689	0
0	20056	4913.716453613122	1
0	20059	4914.142861338004	2
0	20060	4914.527015004412	1
0	20066	4915.326399926524	2
0	20067	4917.307600194679	1
0	20072	4917.434755637748	0
0	20089	4920.277442218473	1
0	20090	4920.37507555314	0
0	20101	4921.383353733461	1
0	20104	4922.164253524282	2
0	20105	4922.627484898873	1
0	20110	4922.694949214005	0
0	20135	4930.088963787087	1
0	20136	4930.09947036645	0
0	20210	4956.75261138236	1
0	20211	4958.469885416947	0
0	20233	4960.947255453412	1
0	20236	4961.871443595587	0
0	20242	4962.400678657897	1
0	20244	4963.001384282859	0
0	20269	4965.691035791975	1
0	20270	4968.375784134448	0
0	20317	4983.235695038194	1
0	20318	4983.727689790492	0
0	20341	4986.689164541761	1
0	20344	4988.024913305641	2
0	20345	4988.180762328466	1
0	20351	4988.980885314487	2
0	20352	4989.310015132994	1
0	20357	4990.085786690589	0
0	20385	4996.433494030809	1
0	20386	4996.661833429385	0
0	20400	4997.90860395119	1
0	20401	4998.346913082083	0
0	20435	5004.786778053637	1
0	20437	5005.466528954191	2
0	20438	5005.910616323081	1
0	20443	5006.849767592216	0
0	20515	5027.946482692311	1
0	20517	5030.905526506187	2
0	20519	5032.783613236662	3
0	20522	5033.877472698988	2
0	20534	5036.32330517883	3
0	20537	5037.511543975793	4
0	20538	5038.717757053626	3
0	20547	5040.393175809969	2
0	20552	5040.60633108014	1
0	20557	5042.899754096068	0
0	20600	5058.50532539783	1
0	20603	5059.593997246962	0
0	20617	5061.307236782066	1
0	20621	5061.627123293332	2
0	20624	5065.254839077353	1
0	20632	5066.201035533592	0
0	20657	5070.49805257439	1
0	20661	5072.506287426249	2
0	20664	5073.862776143855	1
0	20671	5074.279052892936	0
0	20685	5076.301570439342	1
0	20687	5077.197934692404	0
0	20695	5077.421177812715	1
0	20697	5078.045131984003	0
0	20714	5080.629346186713	1
0	20720	5083.29346323015	0
0	20732	5083.866078515818	1
0	20735	5084.299259053242	0
0	20758	5090.642310866755	1
0	20759	5091.775564327361	0
0	20777	5094.584794681142	1
0	20780	5096.755999951279	0
0	20796	5099.025009246044	1
0	20797	5099.177608168205	0
0	20836	5106.127072304879	1
0	20837	5106.303745341913	0
0	20864	5118.226557535621	1
0	20869	5119.866544589844	0
0	20876	5121.010940448973	1
0	20878	5121.855628628384	2
0	20879	5122.103022194223	1
0	20887	5122.795179105258	0
0	20907	5128.623854929607	1
0	20911	5129.403098148319	2
0	20912	5129.782716094903	1
0	20918	5129.91214566904	2
0	20920	5130.636633208083	1
0	20925	5131.250434404556	0
0	20943	5133.758652958658	1
0	20944	5134.162651091528	0
0	20965	5137.2650110226	1
0	20966	5137.572657849991	0
0	20987	5144.442021054435	1
0	20990	5145.527741456624	2
0	20993	5147.374072627677	1
0	20998	5147.82717833521	0
0	21022	5151.87045966473	1
0	21023	5152.838740838157	0
0	21033	5154.097410579289	1
0	21035	5154.138429699439	2
0	21037	5155.166077968942	3
0	21039	5156.051724375609	4
0	21041	5156.106227532858	5
0	21042	5156.959020344348	4
0	21047	5157.611670183486	3
0	21053	5159.04419282242	2
0	21059	5159.046886912308	3
0	21061	5160.270595385665	4
0	21063	5161.258993471215	3
0	21070	5161.85091433275	4
0	21073	5162.420279010249	3
0	21078	5162.706915417105	2
0	21086	5164.239037020748	1
0	21091	5164.908425542007	0
0	21106	5166.092685979657	1
0	21109	5166.32687439366	0
0	21137	5171.621966554081	1
0	21139	5172.882286210039	0
0	21161	5176.275415390947	1
0	21162	5176.511194857624	0
0	21193	5183.685895655552	1
0	21195	5183.957241341488	2
0	21197	5186.379664817748	3
0	21198	5187.890677304982	2
0	21204	5188.024378229991	3
0	21206	5189.308951781611	2
0	21212	5189.41332883515	1
0	21223	5191.269065035857	2
0	21224	5191.321608234202	1
0	21229	5191.406410456781	0
0	21248	5193.33012022252	1
0	21251	5194.925136912391	2
0	21252	5195.020910638021	1
0	21258	5195.896217804904	0
0	21290	5202.052588566813	1
0	21292	5202.060209479298	2
0	21293	5202.525479237062	1
0	21300	5203.012862777071	2
0	21301	5203.093888377928	1
0	21306	5203.235072940741	0
0	21320	5204.25938590003	1
0	21321	5204.44715952782	0
0	21329	5204.829468714495	1
0	21330	5205.244866649041	0
0	21345	5208.305310466925	1
0	21351	5211.11723107155	0
0	21357	5211.226749057797	1
0	21361	5212.288900087532	0
0	21405	5218.905384049613	1
0	21410	5220.837024628253	2
0	21412	5221.705369423648	1
0	21418	5223.923469470219	0
0	21436	5229.924070309045	1
0	21438	5230.405622325563	2
0	21443	5231.549924067919	1
0	21449	5231.587948519486	2
0	21450	5232.566165758883	1
0	21455	5233.481451056996	0
0	21476	5234.800030218431	1
0	21477	5234.94531036693	0
0	21506	5239.319403409986	1
0	21511	5240.300818564969	2
0	21512	5240.456348540053	1
0	21520	5242.996846958609	0
0	21526	5243.042483201467	1
0	21528	5243.662029644234	0
0	21547	5245.316365384054	1
0	21548	5246.070451782553	0
0	21554	5246.695704211402	1
0	21558	5249.784749439071	0
0	21588	5258.377498717645	1
0	21591	5260.131876099049	0
0	21602	5261.281436403614	1
0	21608	5264.185727568262	0
0	21654	5277.357225316466	1
0	21656	5277.707690360098	2
0	21660	5279.802058469452	3
0	21661	5279.948226874462	2
0	21669	5281.080471308477	1
0	21675	5281.618140397892	0
0	21682	5281.734231462147	1
0	21684	5282.456343571102	2
0	21685	5284.299364091494	1
0	21691	5284.423998152799	2
0	21698	5288.011055647952	3
0	21700	5288.591548632337	4
0	21701	5289.307224345113	3
0	21708	5290.144337382031	4
0	21711	5291.377443010912	5
0	21712	5292.971021570676	4
0	21718	5293.235861167464	3
0	21727	5296.065986549434	2
0	21733	5296.447282749818	1
0	21738	5297.876878340651	0
0	21761	5302.217249106235	1
0	21762	5302.348429648349	0
0	21769	5302.989761741247	1
0	21771	5303.176134753461	2
0	21772	5303.853528955842	1
0	21777	5304.918875908392	0
0	21785	5305.577507950395	1
0	21786	5305.665866966141	0
0	21809	5310.291384651742	1
0	21812	5311.272612692273	0
0	21818	5312.276746014269	1
0	21823	5314.384684881147	2
0	21828	5317.573918696299	1
0	21833	5318.057478456779	0
0	21869	5324.699804194505	1
0	21871	5326.388358624476	2
0	21872	5326.565012871697	1
0	21877	5326.939392811557	0
0	21911	5336.937575707568	1
0	21914	5338.342480727433	0
0	21933	5342.177512867223	1
0	21934	5342.36828062398	0
0	21945	5345.296058304163	1
0	21947	5346.370582757363	2
0	21956	5348.996386548213	3
0	21957	5349.632679872159	2
0	21964	5350.333870673521	3
0	21968	5350.98665764763	4
0	21969	5351.481408223488	3
0	21974	5352.383631513816	2
0	21981	5355.610127706342	1
0	21987	5356.655671445984	0
0	21998	5356.941898735796	1
0	22000	5357.651197697679	2
0	22003	5358.51976136107	1
0	22009	5358.614033729127	2
0	22011	5359.641308628168	1
0	22017	5359.645674504716	2
0	22018	5360.167385587561	1
0	22024	5361.713202553321	0
0	22045	5364.854518232671	1
0	22046	5364.873968900065	0
0	22104	5383.198083933797	1
0	22105	5383.667761351788	0
0	22158	5401.72048089339	1
0	22159	5402.18924805773	0
0	22180	5404.768508441684	1
0	22181	5404.909007285018	0
0	22188	5405.45488108325	1
0	22192	5405.986316731367	0
0	22241	5420.097802902621	1
0	22244	5422.041125176918	0
0	22271	5428.336556771635	1
0	22273	5429.494455932104	2
0	22275	5430.408081456582	3
0	22277	5430.419862088552	4
0	22278	5430.898900053687	3
0	22286	5431.504120159127	4
0	22288	5432.103380178168	3
0	22293	5432.51693900161	2
0	22300	5434.998755606426	3
0	22303	5435.424422562012	4
0	22304	5435.80103433594	3
0	22312	5437.602340156694	2
0	22317	5438.307962175162	1
0	22322	5439.426748893444	0
0	22328	5439.570273117107	1
0	22330	5439.66778256301	2
0	22331	5439.833801045661	1
0	22337	5441.008508680908	0
0	22345	5441.59441602266	1
0	22346	5441.853609104251	0
0	22350	5442.879000174572	1
0	22354	5445.589670938848	2
0	22357	5447.108301157273	1
0	22363	5449.009311040831	0
0	22372	5451.276811903435	1
0	22373	5452.020917116073	0
0	22395	5454.583834582178	1
0	22398	5454.795767379578	0
0	22410	5455.595868370444	1
0	22411	5455.639490666498	0
0	22417	5455.852059438282	1
0	22425	5458.568931514679	2
0	22426	5459.227428537009	1
0	22433	5461.623558384565	0
0	22440	5462.367443737052	1
0	22441	5462.562675719853	0
0	22475	5466.818190961308	1
0	22477	5468.578216423364	2
0	22478	5468.944272982319	1
0	22483	5469.054576774977	0
0	22526	5477.292395632519	1
0	22530	5478.598076987622	2
0	22533	5479.353441940071	1
0	22539	5480.121816690918	0
0	22556	5482.424543949228	1
0	22558	5482.577220613436	2
0	22562	5483.692298191408	1
0	22567	5483.751457601344	0
0	22573	5484.509286258699	1
0	22576	5485.459799457863	0
0	22589	5486.077664641393	1
0	22591	5486.256536115021	2
0	22592	5486.437679385515	1
0	22599	5487.128607112943	0
0	22603	5488.654821440009	1
0	22608	5489.397888947949	0
0	22612	5489.648594970371	1
0	22615	5490.434199532222	0
0	22619	5491.169453654699	1
0	22626	5492.727000176573	0
0	22640	5497.641396051926	1
0	22643	5497.750530305904	0
0	22652	5497.816561965522	1
0	22654	5498.714473675137	2
0	22657	5500.226539596365	1
0	22662	5500.274477106742	0
0	22669	5501.302804038172	1
0	22670	5501.546549628751	0
0	22681	5503.581411073287	1
0	22683	5503.835219653338	2
0	22685	5506.849126629052	3
0	22691	5509.064959215858	4
0	22692	5509.101414846324	3
0	22697	5509.155631893183	2
0	22704	5509.421087675316	3
0	22707	5510.499006246133	2
0	22713	5510.948424456491	1
0	22719	5511.464305382075	0
0	22735	5515.967616856468	1
0	22736	5516.231107224076	0
0	22810	5536.519657768007	1
0	22812	5537.447399741561	2
0	22818	5540.078597045464	3
0	22819	5540.081003906003	2
0	22826	5541.367098826247	1
0	22831	5541.485350981708	0
0	22848	5544.441869642421	1
0	22851	5545.462752893064	0
0	22947	5561.457329649465	1
0	22948	5561.672239267668	0
0	22952	5564.186512751442	1
0	22954	5567.700961629935	2
0	22958	5568.077012603845	1
0	22964	5568.804918808786	2
0	22965	5568.853199990207	1
0	22969	5570.957116424221	2
0	22973	5573.890593074716	3
0	22975	5574.481958033249	2
0	22984	5576.388389203137	1
0	22990	5576.471105998977	2
0	22999	5578.9793869692	1
0	23004	5579.615960995793	0
0	23022	5583.546761430611	1
0	23025	5583.758335412951	0
0	23051	5589.355218800059	1
0	23052	5589.985019094273	0
0	23059	5591.26878435374	1
0	23060	5591.786748445598	0
0	23066	5592.032200272787	1
0	23069	5593.630781360642	0
0	23083	5595.232745229131	1
0	23086	5596.515577207686	2
0	23087	5597.227753118278	1
0	23093	5597.369993556169	0
0	23139	5611.868554262216	1
0	23140	5612.335710088048	0
0	23154	5614.632527149734	1
0	23159	5616.966317704965	0
0	23168	5618.003872602517	1
0	23172	5619.45023292817	0
0	23180	5621.104270403441	1
0	23181	5621.192155230304	0
0	23188	5622.053784126491	1
0	23191	5622.362577571297	0
0	23198	5622.828641809124	1
0	23200	5623.028551653719	2
0	23201	5625.197453975672	1
0	23209	5630.277615860286	0
0	23224	5633.513388271287	1
0	23226	5634.512139085297	2
0	23231	5636.094996591917	1
0	23237	5636.560170822307	0
0	23244	5637.357714189207	1
0	23247	5638.776616649082	0
0	23277	5650.673146243391	1
0	23279	5651.734808338774	2
0	23281	5652.129246320921	3
0	23284	5654.320004048761	2
0	23290	5654.626090605414	3
0	23294	5655.411937739106	4
0	23295	5655.67781290578	3
0	23300	5655.684901269191	2
0	23305	5655.787973186987	1
0	23311	5655.926479140023	2
0	23312	5656.910822813879	1
0	23317	5657.95494318031	0
0	23343	5663.499900178569	1
0	23346	5665.155182901112	0
0	23350	5665.64970876219	1
0	23356	5667.035853681393	0
0	23363	5667.360448229992	1
0	23364	5667.376615848202	0
0	23384	5675.345305151131	1
0	23385	5675.43257470732	0
0	23407	5683.171998565812	1
0	23409	5683.337878779503	2
0	23414	5684.663322220281	3
0	23416	5684.771783311273	2
0	23421	5684.852220471484	1
0	23428	5686.07984247769	2
0	23429	5686.625395156026	1
0	23435	5687.266081985055	2
0	23436	5687.730209295797	1
0	23441	5688.250063523276	0
0	23445	5688.452336519226	1
0	23448	5691.13943720476	0
0	23482	5700.660726130916	1
0	23483	5701.866647269503	0
0	23552	5719.117840320156	1
0	23554	5719.823619857365	2
0	23557	5720.719539263606	3
0	23558	5723.212677765542	2
0	23564	5723.644413923804	1
0	23571	5724.21355855562	0
0	23599	5739.92436381924	1
0	23604	5741.485340668073	2
0	23605	5741.665061266753	1
0	23613	5743.150459896791	0
0	23624	5746.181251639166	1
0	23626	5748.100635103562	0
0	23663	5757.34340907705	1
0	23664	5757.436813922431	0
0	23670	5757.811834840631	1
0	23672	5758.110497367989	2
0	23673	5758.440142659221	1
0	23679	5759.27803293295	0
0	23702	5766.609754996649	1
0	23704	5768.82598147495	0
0	23727	5773.513249361466	1
0	23728	5773.769245143585	0
0	23789	5787.750365662781	1
0	23790	5787.891186652227	0
0	23810	5793.142470856946	1
0	23812	5793.40632875999	0
0	23831	5801.230268717288	1
0	23836	5802.267419157278	2
0	23838	5802.283411949125	3
0	23841	5804.45481013601	2
0	23847	5804.572095945045	3
0	23849	5805.460695103351	2
0	23855	5805.500500010457	3
0	23858	5805.640055776872	2
0	23864	5807.056791517759	1
0	23871	5807.573069911575	0
0	23895	5812.677041948648	1
0	23896	5813.002488207786	0
0	23909	5817.571147405325	1
0	23910	5817.75240135422	0
0	23917	5819.550024889661	1
0	23918	5819.862650525858	0
0	23934	5821.950939644834	1
0	23935	5823.865195502559	0
0	23949	5828.107975921284	1
0	23950	5828.143030657992	0
0	23956	5828.17801250505	1
0	23957	5828.243490131251	0
0	23963	5828.31598121994	1
0	23965	5829.124204825559	0
0	23997	5833.210285808528	1
0	23999	5833.729606697162	0
0	24028	5841.469088612233	1
0	24030	5841.50911239393	2
0	24032	5843.86246074883	3
0	24037	5846.281991008107	2
0	24042	5847.262009993665	1
0	24048	5848.531999314259	0
0	24055	5849.745446390133	1
0	24057	5849.771637211879	2
0	24061	5852.042978343242	1
0	24069	5852.900963867206	0
0	24083	5854.485571198258	1
0	24084	5855.284771984204	0
0	24091	5855.725084165985	1
0	24092	5856.238179925539	0
0	24098	5856.463834404032	1
0	24100	5859.002042295209	0
0	24106	5859.757431471372	1
0	24109	5861.357647667311	2
0	24111	5863.652846883849	3
0	24112	5864.529604890511	2
0	24117	5864.539567580446	1
0	24123	5864.741802460811	2
0	24127	5865.203580547003	3
0	24130	5866.358680017735	2
0	24137	5867.364594988717	1
0	24141	5867.809035304316	2
0	24146	5870.697376166088	1
0	24151	5871.975616084866	0
0	24191	5879.345431093501	1
0	24193	5881.251712730456	2
0	24194	5881.641408028403	1
0	24202	5883.874469961429	2
0	24203	5883.915539090705	1
0	24209	5884.063028592795	2
0	24210	5884.384451238808	1
0	24215	5884.581705130173	0
0	24232	5887.460460416566	1
0	24235	5889.307278435967	0
0	24246	5889.506527682298	1
0	24249	5890.250347198752	2
0	24250	5890.51585101483	1
0	24255	5890.523346080303	0
0	24285	5895.674518252944	1
0	24287	5895.959194786491	2
0	24288	5896.076489477907	1
0	24294	5896.857035345065	2
0	24296	5897.496873820256	3
0	24297	5897.508258450468	2
0	24302	5897.578957699047	1
0	24307	5897.776724753523	0
0	24313	5897.899519772859	1
0	24316	5899.423255694857	0
0	24345	5905.034924428109	1
0	24346	5905.351003141335	0
0	24355	5906.731620642235	1
0	24359	5907.54559640564	2
0	24360	5908.379351169748	1
0	24366	5908.911105539124	2
0	24369	5911.17455874528	1
0	24375	5911.559960883848	2
0	24376	5912.507167574953	1
0	24384	5914.207459868384	2
0	24386	5915.631138764519	1
0	24391	5916.113368265044	0
0	24402	5917.610784656249	1
0	24405	5918.128880542134	0
0	24439	5923.286567755708	1
0	24441	5924.493645381609	0
0	24451	5927.141375391364	1
0	24453	5927.249399393723	2
0	24455	5927.384972941546	3
0	24459	5929.895737166943	4
0	24461	5930.854206867909	5
0	24465	5933.760575923961	6
0	24466	5933.876030086053	5
0	24472	5934.193070937044	6
0	24475	5935.929477684094	7
0	24476	5936.228898370252	6
0	24481	5936.429051880953	5
[...]
5	116413	27660.661045132922	1.024315363567
5	116430	27666.506660761348	4.066648093075
5	116463	27670.662892035494	6.178831287332
5	116470	27673.327660741025	5.6691069598
5	116491	27677.16590263298	2.365960855615
5	116503	27678.865765959034	2.76596092988
5	116518	27684.088482557381	7.742087935399
5	116527	27690.644173578921	9.270840765401
5	116532	27691.028117594688	8.358477595031
5	116541	27694.399057784813	8.99913500074
5	116546	27695.059218298205	6.193133692394
5	116580	27706.486962773651	15.376871505857
5	116863	27762.709534410248	64.553967342895
5	116874	27764.400047220649	59.516158495049
5	116890	27766.547814665757	61.529486264373
5	116896	27767.265509524308	55.567214522799
5	116902	27767.593659857955	54.50906667566
5	116911	27770.490096219073	48.91626574447
5	116934	27774.610806190332	51.116156591551
5	116939	27775.011243615821	51.391084999313
5	116950	27777.935202735456	34.647056960566
5	116993	27785.841943442215	40.538371679039
5	117006	27788.712979213095	34.023620224539
5	117014	27788.906755470243	32.801461149125
5	117020	27789.466187454236	31.622268157098
5	117033	27792.602874505075	24.379625521331
5	117124	27810.590925267271	36.626854639633
5	117134	27810.775029758297	35.18365058368
5	117140	27811.223576268763	32.76451131025
5	117145	27811.356149245411	30.999402636172
5	117152	27813.473422193717	24.570249015588
5	117159	27814.263387097772	21.952116080964
5	117164	27815.950002224423	20.786537059471
5	117169	27816.391791611199	17.002302128253
5	117178	27822.415311996612	18.425155216895
5	117194	27823.532664168398	12.983737801254
5	117210	27832.685724340026	1.55676543834
5	117221	27833.574085912348	1.733384271649
5	117230	27836.547480775082	4.603721169071
5	117252	27839.683126406568	3.919246540056
5	117291	27845.416255272564	4.901526005323
5	117305	27853.427320693741	10.956513163525
5	117310	27853.717615580321	6.4182712288
5	117320	27858.183436598381	4.984432037576
5	117351	27867.064165608193	5.572146086865
5	117363	27868.433666590085	0.106620150111
5	117386	27875.066290076685	0.471213286529
5	117393	27875.613726181585	0.328725446966
5	117426	27882.528265080276	2.312455233323
5	117439	27883.703477041248	2.681387452798
5	117443	27884.689980237638	1.223888714548
5	117455	27889.938426897009	2.552244698323
5	117502	27902.440274681183	2.588216294021
5	117511	27904.626475058243	4.091235196498
5	117521	27906.646791514499	2.919977681475
5	117545	27907.941504168276	0.337598159775
5	117561	27910.638429430016	0.132497999513
5	117594	27914.80884058915	0.349705980403
5	117609	27917.105074378478	1.542483480531
5	117619	27923.301668049471	1.451812714454
5	117633	27926.525158576845	0.390343500628
5	117640	27928.062170812896	0.15301068194
5	117650	27932.071956406382	2.297947727262
5	117657	27933.198439455545	3.118391595603
5	117679	27937.960818250631	0.691921795799
5	117686	27942.538143577333	1.441521113047
5	117721	27954.947610001779	1.463848279967
5	117740	27959.190911064292	2.042636949253
5	117757	27966.038911898003	3.820999249885
5	117769	27968.877068147035	1.802851796963
5	117783	27971.02839823238	3.852909875548
5	117790	27974.49589672998	5.22125915631
5	117814	27981.305044758704	1.758251443241
5	117826	27986.2064841463	5.699339779325
5	117847	27990.011776774111	8.752282859828
5	117870	27995.340812760827	2.516216736018
5	117899	28003.18537421928	4.797910235924
5	117911	28005.049444562729	3.768070978977
5	117951	28010.732941467101	4.807725668657
5	117956	28010.928623713641	2.355633083684
5	117966	28011.973739270342	3.075389949594
5	117997	28016.332075661956	5.949719923008
5	118007	28020.710168206981	7.242561882431
5	118014	28022.080977014167	5.107307550662
5	118019	28022.887493855141	1.255568729488
5	118054	28045.668417683916	0.077390938482
5	118062	28046.456983584775	0.075531786622
5	118086	28053.117591062731	1.38967135609
5	118110	28058.523927464954	0.036517932249
5	118123	28064.636157800256	5.871128711459
5	118169	28074.664972896804	2.166096623763
5	118173	28074.799754294383	1.131513193624
5	118180	28075.101398369164	0.188652482687
5	118214	28084.017949022103	5.182128980545
5	118229	28086.479056919437	6.846341678133
5	118236	28087.850310097055	4.146746882465
5	118243	28089.005119622033	5.066954461147
5	118274	28099.58129710283	15.115136945683
5	118314	28103.027725874223	16.755427769057
5	118319	28103.945679975182	17.029238865124
5	118330	28107.567948429456	17.528782548523
5	118410	28124.925754728172	34.229875488285
5	118416	28126.742847037565	25.401365161464
5	118421	28130.977738955556	23.131394585608
5	118432	28137.361847214268	25.076090457536
5	118482	28144.43841254742	31.230353850694
5	118489	28145.318951659858	20.551755006234
5	118493	28145.663224876376	6.571041672975
5	118527	28154.844589604599	3.461425855428
5	118544	28159.503233232426	4.545430614292
5	118551	28160.976795481266	0.928880364578
5	118566	28165.211432032237	3.28118456037
5	118589	28172.735911842833	10.471434445393
5	118618	28177.141414313163	12.735036730782
5	118623	28178.184962538646	9.010641889383
5	118634	28180.0531833862	7.736523368565
5	118652	28182.324005462329	9.689823761725
5	118660	28185.974234236225	7.275293729748
5	118676	28189.76469370396	1.71510786352
5	118733	28208.919333324808	6.514492273266
5	118755	28211.816274689283	2.895170429322
5	118776	28214.711647157583	2.498748399873
5	118781	28215.162930459348	2.544191278406
5	118785	28215.290374997928	2.665113900999
5	118836	28234.840152103884	1.23189685179
5	118873	28241.524620092678	2.658561329122
5	118891	28243.373016701406	2.346992992508
5	118935	28249.850475262939	0.482001836024
5	118952	28253.704172005105	1.387688397244
5	118971	28259.557910560299	0.827083001146
5	118986	28262.103491191991	1.558369888589
5	119015	28267.001344141732	1.785789659539
5	119034	28269.04778773043	2.207778307828
5	119038	28270.891564062298	2.197921900156
5	119065	28274.778041095992	2.744755631837
5	119074	28277.048879233383	2.766470543968
5	119094	28279.307789420816	1.490645705201
5	119115	28286.242009272919	6.518495938618
5	119129	28287.104924586821	6.020253989174
5	119139	28292.872896716464	0.816895980966
5	119153	28296.741252356088	0.215402675777
5	119162	28298.196507536483	0.622252442218
5	119210	28308.143361597544	5.868717765076
5	119262	28317.331239843199	3.82927010248
5	119266	28317.529365290675	2.732187130585
5	119280	28321.65865235345	0.310835521008
5	119295	28328.974767091155	3.100353804616
5	119315	28334.655116372894	0.580341934338
5	119331	28342.110917120221	0.650134429781
5	119346	28351.310681733769	4.048844639529
5	119365	28353.973584714215	0.178760863185
5	119373	28355.816650409953	1.944619062599
5	119380	28356.669596667572	1.059292633746
5	119405	28359.480862153598	2.034793370776
5	119418	28367.676851797913	9.762217052201
5	119422	28368.055631345745	8.777366072761
5	119436	28372.345559277278	3.6112189493
5	119447	28373.414499096549	3.265560941327
5	119454	28375.079552586425	2.903819917728
5	119465	28376.468730428892	1.185724906265
5	119478	28380.196979494413	1.445464587294
5	119499	28385.118265475345	1.824503667003
5	119506	28386.1938732279	2.253852276061
5	119515	28388.771038289868	3.325295110976
5	119526	28391.857592354241	3.133683860744
5	119619	28417.606981953897	2.438978658371
5	119650	28422.827188932303	6.752496560687
5	119663	28423.837237180948	4.991890251474
5	119668	28423.970613474084	1.729639814657
5	119673	28426.384093548373	2.948688104418
5	119699	28436.140470005498	2.142386713505
5	119733	28442.116557982361	0.066984234583
5	119773	28449.066069578555	3.759637329274
5	119822	28457.813545498664	1.478232037288
5	119880	28470.158977866966	7.978061573349
5	119898	28471.876882698386	9.08524290207
5	119909	28475.990023850681	8.297711514514
5	119933	28478.251501023901	8.786600075929
5	119938	28478.735365431402	8.844781479647
5	119977	28492.715474191305	7.233019691098
5	120046	28506.628420485417	18.901160410569
5	120055	28507.09676423216	13.177819168266
5	120067	28508.783647028448	9.354135503088
5	120076	28509.605678642157	8.600709607671
5	120081	28510.206035987244	3.455412967865
5	120086	28511.412834783449	4.087693123815
5	120101	28520.096426225047	12.155151968578
5	120122	28523.374135711664	14.719676592337
5	120127	28523.503549433395	14.557989780831
5	120145	28526.197510640846	11.453268532154
5	120175	28530.144922840215	12.001051780163
5	120181	28530.255031801085	12.077566114859
5	120186	28531.186729959713	10.694080800152
5	120193	28531.614862914045	10.056061167827
5	120208	28537.114424728734	11.741288963579
5	120228	28542.054713502921	15.291717796386
5	120237	28544.35139072889	12.857289360884
5	120254	28547.258851869074	12.272836092257
5	120275	28552.636151393722	16.070151670489
5	120285	28555.279743678462	15.177014732655
5	120296	28557.851081698918	13.548221908117
5	120301	28558.34880376536	13.59043356459
5	120311	28561.335684170554	12.597600174944
5	120339	28565.883446025513	9.263690016287
5	120409	28578.18539269752	21.362715078903
5	120414	28578.911273348812	21.602786386816
5	120421	28580.850405103533	21.756641919615
5	120436	28584.92238919474	21.876506619006
5	120453	28586.577586517055	21.450251271982
5	120457	28587.461100188785	14.447308531376
5	120482	28596.990640175526	2.970032576401
5	120491	28601.688732229225	4.931881600391
5	120515	28608.230940542735	5.356008182625
5	120534	28611.21471386073	3.507543148864
5	120548	28613.08086824226	1.166393165966
5	120561	28615.401608846486	1.68148895969
5	120596	28627.294719956261	2.224923417289
5	120617	28638.554031825074	1.898583678611
5	120664	28653.783484166069	14.102044672104
5	120672	28659.655699372217	12.427090498993
5	120685	28660.933541884029	10.805199120315
5	120697	28665.516458662889	3.712971038692
5	120711	28669.73924098088	2.468412238411
5	120719	28670.542836831949	0.083293114636
5	120742	28678.34361213833	5.702694880866
5	120761	28681.688608377322	4.239908435358
5	120765	28681.706148012964	0.342679829359
5	120810	28699.402457768429	9.719226136061
5	120834	28703.211334812014	7.852648618711
5	120846	28703.596576175341	0.171014231199
5	120897	28716.522580449394	0.801063870557
5	120909	28724.813171373781	6.566762987818
5	120916	28725.939132863694	6.785431928466
5	120923	28730.437459820419	8.102536539258
5	120934	28733.14851066023	7.958730944608
5	120939	28733.782951002754	6.240617862883
5	120946	28736.812117203621	5.453488561414
5	120953	28739.274631475927	7.558068457712
5	120960	28742.656461273027	10.682176192358
5	120970	28745.725434852711	9.336066131845
5	120990	28749.892872593871	11.47549669816
5	120997	28752.582199581143	10.67439491012
5	121007	28754.999910229409	10.561038061113
5	121038	28767.418153959142	0.608020070937
5	121050	28772.477930000958	0.682272032314
5	121081	28779.834381644492	4.796528771487
5	121188	28803.638327154339	23.658018021857
5	121214	28807.824946808447	24.342170122896
5	121221	28808.339095631498	20.246894809912
5	121228	28808.620229125176	19.036816012329
5	121233	28808.646032895548	11.31811468264
5	121240	28809.610074250452	6.497422898201
5	121245	28810.189621869519	2.078237086755
5	121251	28811.003927096438	2.638122926481
5	121255	28812.060599016968	3.100806028865
5	121269	28816.753082927431	1.311989056776
5	121273	28816.807210464401	1.334635951805
5	121288	28820.929069757349	0.241338488601
5	121329	28838.246207123755	5.003847730378
5	121400	28847.117634184034	10.03465292875
5	121410	28848.375722030494	9.444889906589
5	121414	28849.13689380815	5.760280069989
5	121437	28854.485722216987	2.330537450424
5	121552	28893.775151214521	3.11164038239
5	121617	28906.612062877202	12.247613703669
5	121631	28912.673854843521	1.013387052401
5	121642	28914.426347910997	0.630435206968
5	121778	28950.442759015155	30.796724298731
5	121787	28953.264554313132	18.983972322121
5	121804	28956.915510826806	18.896436171778
5	121823	28960.193691213373	17.7916538552
5	121865	28966.121245772917	14.114200733709
5	121872	28966.475175606681	8.827205014146
5	121879	28967.402662150506	8.152615567687
5	121906	28971.517964951018	9.444511257028
5	121936	28980.718829972832	14.502347488715
5	121958	28989.330717007165	18.512734758473
5	121988	28996.619765837339	13.577038248015
5	122010	29003.673078203076	17.5275309645
5	122015	29005.542182808231	16.669955097768
5	122022	29006.45839372462	8.916167733113
5	122027	29007.26931596449	6.527770151031
5	122031	29011.785764933333	5.746295675572
5	122058	29021.859537724924	0.018234454874
5	122081	29031.940256579166	2.571756564897
5	122099	29036.11434385663	2.095837317018
5	122103	29037.127766917212	2.527741783637
5	122130	29042.993509625063	0.455840031606
5	122145	29044.584097368605	1.439115802445
5	122164	29046.436678104843	2.878479517402
5	122176	29050.503285402639	0.212112754963
5	122186	29055.840829669675	1.630546451889
5	122239	29069.191995270057	0.14587731349
5	122254	29075.312002867994	1.886284330326
5	122271	29080.564381348078	2.543800266342
5	122299	29084.224745303595	4.400401461604
5	122308	29085.54808243844	1.336271696649
5	122318	29088.048255675995	3.799646967565
5	122332	29090.459443738043	1.023485935388
5	122339	29093.120666919533	1.975912069004
5	122362	29100.047521820931	1.896399309328
5	122369	29101.569937955498	2.318482436683
5	122378	29104.90614951739	5.504903992393
5	122387	29108.619572248362	8.497107450243
5	122398	29114.667099492225	12.781339233389
5	122409	29116.951287353933	14.435685950591
5	122414	29118.200338407414	11.773245411236
5	122419	29120.685627236845	12.796989375178
5	122426	29122.186334482807	13.523285575705
5	122431	29122.842272220677	9.605873525232
5	122440	29125.316635563571	3.778062714772
5	122456	29127.567916912352	1.002833755521
5	122471	29133.616064917451	4.018430535785
5	122491	29136.294165859584	4.940893218901
5	122511	29141.023704331518	3.233775719202
5	122521	29143.463537476738	3.16538682527
5	122537	29153.403909806235	4.346408374189
5	122577	29167.168730654938	15.044891908438
5	122595	29170.21475532093	11.21844210736
5	122606	29170.530862959114	8.941540057099
5	122618	29178.549572596318	12.355996220587
5	122650	29191.8879801176	24.389086917316
5	122749	29215.684094946785	46.67616659999
5	122756	29217.905539530994	35.520042132626
5	122765	29220.835165592049	27.052615036736
5	122797	29228.965572580641	29.778919070081
5	122817	29231.851044723675	30.316468667845
5	122822	29232.178380842432	25.219006433624
5	122827	29232.697313540557	23.654060916254
5	122833	29233.136591713098	15.837507581524
5	122840	29237.689028467086	10.670997315602
5	122857	29240.438062668849	9.369257695526
5	122872	29245.538745536626	6.933122751113
5	122903	29252.145576159778	13.122279241211
5	122916	29253.447917913054	13.181461887768
5	122921	29253.821207206144	11.104574105811
5	122930	29256.46610920756	8.50796362617
5	122946	29261.221185813867	8.231762216858
5	122988	29271.458255000304	3.402648336983
5	123016	29273.322592988475	4.534082661383
5	123052	29277.724810932186	4.409553726108
5	123059	29279.279116981857	5.545067777153
5	123093	29288.719065297326	9.379496198558
5	123120	29291.594482216172	11.2359819359
5	123130	29292.754162643904	10.061397564052
5	123139	29294.507359933186	0.166473561782
5	123146	29296.237854438395	0.463282250611
5	123188	29307.84504734733	1.795655999486
5	123197	29310.078076043499	2.777416242251
5	123227	29316.242177578988	3.131311079488
5	123259	29321.475157354611	8.313674839009
5	123266	29321.684193570859	3.449971257151
5	123337	29335.72411403	0.171337266487
5	123354	29337.134093374741	0.609524389132
5	123361	29338.737705806374	1.861607240333
5	123379	29343.083307657529	1.727854129575
5	123396	29351.293879537999	8.455504208655
5	123407	29354.946157328721	11.351911198949
5	123503	29370.367611246688	22.151897145691
5	123662	29402.125987643254	53.659841680153
5	123698	29409.349433745717	53.516329424024
5	123713	29410.674070469348	48.321071837079
5	123718	29410.748432545507	47.135090066125
5	123724	29415.067010055637	38.352497497004
5	123729	29417.84813083246	40.987886750834
5	123735	29418.595909854582	17.156741501797
5	123744	29421.779698816027	14.394003774114
5	123751	29425.226318015701	17.502063746848
5	123764	29427.732229264346	9.021965489065
5	123774	29428.96856672859	8.565462811601
5	123807	29440.458659117325	0.079131362831
5	123838	29447.293881230704	2.251779226699
5	123872	29455.88482619243	5.854866780152
5	123935	29463.105767480203	7.651550363539
5	123956	29469.162148606435	3.978613203026
5	123968	29478.273503623318	3.55150622124
5	123976	29480.685509924274	4.354387671997
5	123983	29483.222687925485	3.691347622948
5	124011	29490.010237204312	1.48121108892
5	124021	29491.779780431608	2.800813385762
5	124034	29495.649890819934	5.308664552195
5	124058	29499.452051641485	8.477515374359
5	124072	29505.663745966025	11.3704716814
5	124225	29547.808442318142	39.780703091111
5	124230	29548.531424216677	40.503682124664
5	124239	29551.771542255872	37.564050012024
5	124258	29561.196511320364	46.681378282632
5	124345	29580.159422430102	58.614204777242
5	124350	29580.547752985785	58.696161531597
5	124361	29582.516693685984	53.29559262888
5	124378	29587.65511098807	53.361923264642
5	124388	29588.575059750074	40.015640505513
5	124396	29589.938190734198	40.717970980452
5	124412	29596.529832484593	31.149775743987
5	124423	29599.118977354772	20.813539603235
5	124428	29599.865665270927	20.519254175113
5	124437	29602.453381587557	17.576829433796
5	124451	29603.629156158827	9.31029284279
5	124466	29606.852820483061	5.288845663308
5	124470	29607.107553629128	1.179093151796
5	124488	29611.509626258	1.049279828525
5	124545	29623.244185679021	8.724887142022
5	124605	29633.805997392141	7.071889438165
5	124619	29634.849852438612	4.8973872919
5	124638	29643.794279664418	2.986302247605
5	124661	29647.81869640829	1.614043183153
5	124672	29649.486256711434	0.833664938091
5	124684	29650.481810326089	0.789411854878
5	124693	29651.438317556533	0.067912074808
5	124712	29661.287431701068	0.300544578552
5	124772	29677.96574535438	2.954812728591
5	124781	29678.142775345589	3.131523864365
5	124797	29682.595341505198	0.241922136844
5	124821	29697.42374644833	0.07287171707
5	124856	29705.627052735345	1.238308536986
5	124860	29706.307393482187	1.636873593587
5	124895	29718.174926826773	0.513320946617
5	124913	29723.510691955358	1.997209548248
5	124922	29725.53330335407	3.357462976135
5	124927	29726.731217350477	2.97047226907
5	124934	29728.733673141646	3.971483117658
5	124956	29736.937299026089	0.667190455175
5	124971	29738.85521207746	0.352498289263
5	124998	29750.976511164747	0.508450772492
5	125046	29764.082760072736	0.50936029506
5	125058	29768.920401395527	2.618754419802
5	125081	29773.762331086486	3.835918483327
5	125085	29774.862897106826	3.425329586942
5	125126	29785.079160042727	8.589299483228
5	125148	29789.235827252944	10.731340814559
5	125157	29790.25663978652	0.2296089407
5	125194	29799.708274929565	3.623786439993
5	125209	29803.005433727617	1.612994256081
5	125220	29804.037571181436	0.362550364298
5	125236	29806.606427184258	0.286351014491
5	125269	29817.446779739912	4.847675809401
5	125323	29832.406669029938	2.547387597125
5	125347	29837.158491527841	1.073232954876
5	125366	29843.692136172541	4.130130587106
5	125494	29868.417869417133	27.162477449594
5	125520	29874.441881151963	25.256464759159
5	125529	29879.266043406792	22.180331339122
5	125555	29884.236519362717	24.881314432057
5	125586	29890.671074855911	23.453968626504
5	125595	29893.075528651024	9.303272824774
5	125606	29896.261180453338	10.542666396466
5	125631	29909.108194573781	2.890806222232
5	125647	29914.997781752722	0.011483653603
5	125666	29921.919690552411	1.550488060265
5	125709	29929.371874683727	3.715984579773
5	125774	29942.845215694947	12.623212770369
5	125782	29946.160455694561	8.104704610267
5	125797	29952.867052066471	13.329768112327
5	125839	29958.608576462377	18.054787107689
5	125846	29959.485139387796	17.621805727947
5	125859	29962.507763580289	16.360173961534
5	125876	29965.161870950797	18.569508701605
5	125916	29971.726915413242	20.445444721836
5	125930	29978.063273453877	21.412004434031
5	125944	29983.217474710729	10.930283483604
5	125995	29991.51107028227	18.993590762848
5	126008	29993.904534299083	16.847387404132
5	126023	29996.780712830147	11.239032261606

