version 2
run Second-n5-5-20191016-17:04:31-15356
attr configname Second-n5
attr datetime 20191016-17:04:31
attr experiment Second-n5
attr inifile omnetpp.ini
attr iterationvars ""
attr iterationvarsf ""
attr measurement ""
attr network org.omnetpp.queueing.Pizza
attr processid 15356
attr repetition 5
attr replication ""
attr resultdir results
attr runnumber 5
attr seedset 5
param **.PS.maxInventoriedPS 5
param **.U1.interArrivalTime exponential(3s)
param **.U2.interArrivalTime exponential(5s)
param **.PS.serviceTimeForInventoryU1 exponential(1.0s)
param **.PS.serviceTimeForInventoryU2 exponential(1.2s)
param **.PS.serviceTimeDirectU1 exponential(1.4s)
param **.PS.serviceTimeDirectU2 exponential(1.4s)
param **.PS.probabilityProducing 0.7
param **.CS.serviceTimeU1 exponential(1.1s)
param **.CS.serviceTimeU2 exponential(1.4s)

vector 0 Pizza.EntryQueueU1 queueLength:vector ETV
attr interpolationmode sample-hold
attr title "queue length, vector"
vector 1 Pizza.CS queueLength:vector ETV
attr interpolationmode sample-hold
attr title "queue length, vector"
vector 2 Pizza.EntryQueueU2 queueLength:vector ETV
attr interpolationmode sample-hold
attr title "queue length, vector"
vector 3 Pizza.sink lifeTime:vector ETV
attr interpolationmode none
attr title "lifetime of arrived jobs, vector"
attr unit s
vector 4 Pizza.sink lifeTimeU2:vector ETV
attr interpolationmode none
attr title "lifetime of arrived jobs, vector"
attr unit s
vector 5 Pizza.sink lifeTimeU1:vector ETV
attr interpolationmode none
attr title "lifetime of arrived jobs, vector"
attr unit s
0	0	0	0
0	5	0.753059933076	1
0	7	1.447793824209	2
0	11	2.804223168235	3
0	13	3.086565267221	4
0	14	3.713850244484	3
0	20	5.225158783124	2
0	24	5.92483528698	3
0	26	6.548570327485	4
0	32	11.503754629997	5
0	35	12.097883854806	4
0	40	12.468465603316	3
0	45	13.056406209051	2
0	50	14.363753905328	1
0	54	15.527032728862	2
0	57	15.917614004192	1
0	65	16.259902939981	0
0	76	17.559657457948	1
0	77	17.612700222004	0
0	109	27.2333374427	1
0	111	27.239987453388	2
0	112	27.409862040947	1
0	119	29.809907491792	2
0	123	31.337113027341	3
0	126	31.796987862169	2
0	132	33.417723816707	1
0	137	33.450221895159	0
0	161	36.378827043341	1
0	163	36.685816536741	0
0	209	46.360029328447	1
0	210	48.495134070329	0
0	225	53.00068374795	1
0	228	54.14083495371	0
0	283	79.167839037598	1
0	289	82.130367546207	2
0	290	82.16161446523	1
0	298	83.496825397181	0
0	325	95.323929666166	1
0	326	96.457178417929	0
0	348	102.028268712333	1
0	350	102.178913951842	0
0	396	113.373974405659	1
0	400	115.566061340857	0
0	468	130.712734368155	1
0	469	132.547973135386	0
0	477	132.772414198403	1
0	478	132.808857588796	0
0	492	135.551317261997	1
0	498	140.155823895037	2
0	499	140.686901860388	1
0	503	141.809983509814	2
0	506	142.8829798985	1
0	510	142.961005277116	2
0	514	144.910931078743	3
0	516	145.151005824882	4
0	517	145.768159934367	3
0	523	146.075600108616	4
0	525	146.309619952126	3
0	531	146.571897756419	4
0	533	147.560191727462	3
0	539	147.744219496212	4
0	540	148.170476420325	3
0	546	150.213403480256	4
0	550	152.106326956901	5
0	551	152.220236435254	4
0	555	152.295109627186	5
0	557	152.767916816964	6
0	562	154.041504267329	5
0	567	155.034843289813	4
0	571	155.431756074447	5
0	573	156.0185650794	6
0	578	157.128413495981	7
0	579	157.214583969284	6
0	584	157.228808424077	5
0	589	157.794298509782	4
0	593	158.410299730938	5
0	599	159.388138156341	6
0	600	159.508933994195	5
0	604	160.810791119891	6
0	610	161.788703516055	5
0	618	162.793499485644	6
0	620	163.675368043331	5
0	625	163.877958408164	4
0	631	165.670321757192	5
0	634	166.164350996838	4
0	638	167.01887638214	5
0	641	168.364231605692	4
0	648	172.394274366264	3
0	654	174.968084317698	4
0	655	175.90279490601	3
0	661	176.639086795245	4
0	662	177.956754452941	3
0	667	178.279897416905	2
0	673	179.273844057861	1
0	680	179.819867087475	2
0	682	180.004291030901	3
0	683	181.016472358735	2
0	688	181.939996712436	1
0	692	182.627656642452	2
0	695	183.976794078115	1
0	702	185.099845418003	0
0	706	185.820788363811	1
0	709	187.489340058126	0
0	715	189.893917716195	1
0	719	191.225849671576	0
0	745	197.868373846917	1
0	751	199.536341987411	0
0	758	199.868223170379	1
0	759	200.413389690558	0
0	780	201.711829444408	1
0	784	203.375347111606	2
0	785	203.459517262331	1
0	792	205.866711690809	0
0	837	213.092994044818	1
0	839	213.176737452058	2
0	840	213.939511119916	1
0	845	214.02547159039	0
0	872	218.597928035541	1
0	875	221.955811755441	0
0	909	232.974672221691	1
0	911	233.548339892369	2
0	913	233.607478861189	3
0	914	235.452771090029	2
0	921	235.833868585311	3
0	923	236.165189453256	4
0	924	236.272697009939	3
0	930	236.626187778186	2
0	935	237.32386189409	1
0	941	237.447741941042	2
0	948	238.119840562589	1
0	958	242.206911123098	0
0	986	245.801341784986	1
0	987	246.073141389281	0
0	1018	253.121163314514	1
0	1019	253.183547465981	0
0	1032	255.063392756283	1
0	1035	256.224988432589	2
0	1036	257.07771953002	1
0	1040	258.330477187305	2
0	1043	259.103681564087	1
0	1048	260.987540372419	0
0	1062	266.24713714341	1
0	1065	266.816543117234	2
0	1068	267.426328777828	1
0	1073	268.361938414667	0
0	1097	277.223831066216	1
0	1099	279.885983078526	2
0	1102	280.384150019176	1
0	1107	281.024539723054	0
0	1136	287.651399686549	1
0	1137	288.102871742429	0
0	1163	296.978208617212	1
0	1164	298.09333013851	0
0	1183	301.8988162956	1
0	1185	303.869069651298	0
0	1201	307.415165476816	1
0	1202	308.096449052826	0
0	1216	313.925167478699	1
0	1217	314.580684271879	0
0	1231	319.430991204679	1
0	1232	319.624199747099	0
0	1249	325.744906966422	1
0	1250	326.282040727368	0
0	1256	326.593313736651	1
0	1258	326.848772501387	2
0	1260	327.316556483484	3
0	1263	327.791081192667	2
0	1268	327.990181871973	1
0	1273	328.067394741525	0
0	1284	328.547952245673	1
0	1285	328.850704269758	0
0	1298	330.232948669596	1
0	1301	330.67541313188	0
0	1342	341.981200418103	1
0	1343	342.031363201988	0
0	1349	342.823026738185	1
0	1352	344.870234909165	2
0	1353	344.967710453872	1
0	1359	345.15699914433	2
0	1361	346.501840686769	1
0	1367	346.803577472492	0
0	1380	349.324305849872	1
0	1381	349.610565011231	0
0	1411	354.902579956291	1
0	1413	355.455826462763	0
0	1431	357.688294074254	1
0	1434	359.578006673359	0
0	1441	361.766922729054	1
0	1442	363.025598752415	0
0	1448	363.350572083998	1
0	1450	364.632357903302	0
0	1491	371.161652327953	1
0	1493	372.34080408511	2
0	1494	372.958192515271	1
0	1500	373.041147832333	2
0	1502	374.107975690454	3
0	1504	374.206500956564	4
0	1507	375.845815638146	3
0	1514	376.484719834553	2
0	1519	376.731627755241	1
0	1524	376.850784586187	0
0	1598	401.37094233622	1
0	1599	401.536710529671	0
0	1614	402.731160799559	1
0	1615	402.832325375981	0
0	1645	413.097969673169	1
0	1648	415.862867779544	0
0	1718	439.975899789309	1
0	1721	441.626564652716	2
0	1723	442.201967045216	3
0	1724	443.057068132305	2
0	1730	444.166000824485	1
0	1736	445.490372400509	0
0	1743	446.586386321548	1
0	1745	447.647361063956	2
0	1746	448.002119548921	1
0	1751	448.371131190091	0
0	1820	473.534189625222	1
0	1821	474.011130898838	0
0	1835	478.269428461922	1
0	1836	479.005163635612	0
0	1842	479.215279397565	1
0	1843	479.264974796138	0
0	1866	481.61515490525	1
0	1867	481.693067385284	0
0	1874	482.052782192348	1
0	1875	482.060092592591	0
0	1947	501.552406072044	1
0	1948	502.560183897717	0
0	1978	507.435092353977	1
0	1981	508.539040031493	0
0	2002	511.776523664966	1
0	2003	512.746422253331	0
0	2045	525.038420304654	1
0	2047	525.094014305382	2
0	2048	525.420153279505	1
0	2053	525.672434966241	0
0	2072	533.183179692881	1
0	2081	535.528534345606	0
0	2096	539.22919970932	1
0	2099	541.340404202368	0
0	2113	545.045006567858	1
0	2116	545.669505624645	0
0	2147	556.254202616668	1
0	2148	556.912439166303	0
0	2157	557.213192207446	1
0	2159	557.948569730727	2
0	2162	559.640700425338	1
0	2168	560.031364938635	0
0	2181	563.408137047575	1
0	2182	563.659182294631	0
0	2188	564.243215530762	1
0	2189	564.357364808904	0
0	2197	564.622875570132	1
0	2201	564.967556616196	2
0	2202	565.102771941444	1
0	2209	566.326563202696	0
0	2243	570.738093314075	1
0	2246	571.436506815742	0
0	2257	571.736868579261	1
0	2258	572.886443706369	0
0	2272	574.902521789228	1
0	2276	577.072812243809	2
0	2279	577.260437977644	1
0	2284	577.583874051175	0
0	2304	579.982305886167	1
0	2305	581.074304900444	0
0	2312	581.224811160952	1
0	2315	582.429939389447	2
0	2319	582.903290284742	3
0	2320	583.118817953198	2
0	2333	585.800144300934	1
0	2338	586.147590840131	0
0	2349	586.556758595802	1
0	2351	588.006578376156	0
0	2357	588.05948924483	1
0	2361	589.194381137315	0
0	2394	593.382808803388	1
0	2398	595.344232819081	2
0	2399	595.385504592322	1
0	2404	596.208372058205	0
0	2429	599.447442530154	1
0	2430	599.940581991988	0
0	2451	606.1697809137	1
0	2455	610.544921604795	0
0	2503	619.895794869883	1
0	2506	620.571493112133	2
0	2509	622.53057840329	1
0	2515	622.615981341264	2
0	2517	622.712071330469	1
0	2524	624.465921620846	2
0	2528	626.84774611182	1
0	2533	626.924160854442	0
0	2546	628.493145563404	1
0	2550	630.167450315507	2
0	2552	630.704228262681	1
0	2558	632.333289366237	0
0	2577	633.723010986521	1
0	2580	638.442751385922	0
0	2618	651.119799352051	1
0	2620	651.162159616267	2
0	2621	652.02871312869	1
0	2627	652.329914634018	2
0	2630	652.723587863513	3
0	2631	653.00429318772	2
0	2637	653.892872127172	1
0	2643	655.186419086617	0
0	2673	664.28478432175	1
0	2678	665.748147041751	2
0	2679	666.400191810436	1
0	2687	666.537668384375	0
0	2720	671.880887572931	1
0	2722	672.306647747879	0
0	2736	673.652464921939	1
0	2739	673.907650565479	2
0	2741	674.552730316519	1
0	2746	675.220405943706	0
0	2752	675.228927348955	1
0	2753	676.005284074637	0
0	2761	676.234192920435	1
0	2762	676.975197301661	0
0	2835	697.815947811014	1
0	2838	699.150339038834	0
0	2860	703.313809085774	1
0	2861	703.914021961757	0
0	2939	720.719586115651	1
0	2943	724.249399246434	2
0	2944	724.790643356953	1
0	2950	725.549999696805	0
0	2966	728.841951379971	1
0	2969	732.375217728588	0
0	2975	732.53914554151	1
0	2976	733.483322779782	0
0	2982	733.744108095792	1
0	2985	734.877763738378	0
0	3003	736.754672233615	1
0	3007	738.835313569748	0
0	3028	740.850396503013	1
0	3033	741.556137395494	2
0	3034	742.272106479115	1
0	3039	742.383937952463	0
0	3054	744.294408497557	1
0	3056	744.559991633673	0
0	3102	762.275817986086	1
0	3103	762.687940587763	0
0	3148	773.779398007222	1
0	3151	774.654287035983	0
0	3163	776.176193215671	1
0	3165	776.640582836793	0
0	3178	778.347265020659	1
0	3180	782.953362724395	0
0	3191	783.964414182882	1
0	3192	784.27787854553	0
0	3202	786.590384235204	1
0	3204	787.322254324472	2
0	3205	787.829920958979	1
0	3210	788.098285980741	0
0	3216	788.201413427872	1
0	3217	788.315297210169	0
0	3357	826.997705648175	1
0	3360	827.536501555486	0
0	3405	841.80721938818	1
0	3406	841.849547464014	0
0	3421	844.305971506053	1
0	3423	845.11366413749	2
0	3424	845.491470712872	1
0	3429	845.717256434028	0
0	3445	853.828831374854	1
0	3453	855.796741455797	2
0	3456	855.844351349765	1
0	3462	856.373695923106	0
0	3478	856.895051816434	1
0	3481	857.237063814294	2
0	3489	861.58008866744	1
0	3495	863.37430279729	0
0	3549	876.984234094413	1
0	3551	877.605898468177	2
0	3553	878.180741334548	1
0	3559	879.507940909133	2
0	3561	881.634997742462	1
0	3568	884.623190293403	2
0	3569	885.134221928188	1
0	3575	885.767969747262	2
0	3577	885.868065532697	1
0	3583	886.640973148769	0
0	3614	893.058090328486	1
0	3615	893.213175221002	0
0	3636	898.390210367625	1
0	3640	899.08940046085	0
0	3648	900.88168223704	1
0	3651	901.78133894943	0
0	3658	902.073632239647	1
0	3659	902.774229892369	0
0	3673	905.3490295608	1
0	3675	906.270317676262	2
0	3676	906.551245216307	1
0	3682	907.76403975652	0
0	3689	910.136490980941	1
0	3690	910.18724768388	0
0	3707	911.887900875386	1
0	3708	911.903889840075	0
0	3714	912.155696167057	1
0	3715	912.511564573949	0
0	3721	914.779313277884	1
0	3722	915.577851299469	0
0	3738	917.920109058767	1
0	3739	918.130571862288	0
0	3747	920.026627342086	1
0	3750	920.995602924418	0
0	3773	923.140345738151	1
0	3775	924.544401977464	0
0	3846	947.049846740889	1
0	3847	948.184566403928	0
0	3853	948.195987097752	1
0	3856	950.126148188974	2
0	3857	950.418258082001	1
0	3864	952.765008188802	0
0	3875	953.751002348421	1
0	3876	956.54819566982	0
0	3900	975.800648130311	1
0	3901	976.2000795682	0
0	3926	985.013335744771	1
0	3928	986.596418477147	0
0	3941	987.652399564666	1
0	3943	988.551913704986	2
0	3944	988.917806046489	1
0	3949	989.068480456078	0
0	3955	989.452958378256	1
0	3959	990.668959304252	0
0	3980	992.681614139113	1
0	3982	992.934982030849	2
0	3983	993.122143827844	1
0	3991	995.636083505062	0
0	4000	996.543068434184	1
0	4003	997.245558796687	2
0	4006	997.795822036855	3
0	4008	1000.438323414946	2
0	4014	1001.783909297957	1
0	4019	1002.128102731324	0
0	4031	1003.680456794657	1
0	4035	1004.784099792901	2
0	4036	1004.990754955673	1
0	4043	1006.448485376347	2
0	4045	1009.41852206454	3
0	4046	1009.446825675715	2
0	4051	1009.740436420845	1
0	4057	1010.605927357567	0
0	4085	1020.195685259786	1
0	4087	1021.007676650512	0
0	4124	1027.897790918663	1
0	4126	1028.169455158941	0
0	4164	1034.165039953328	1
0	4166	1035.868919062962	0
0	4180	1038.429818334208	1
0	4182	1040.107106296677	2
0	4183	1041.431315668276	1
0	4190	1042.55389352801	0
0	4211	1046.79611104476	1
0	4214	1046.943544594587	0
0	4235	1051.020277415112	1
0	4239	1053.805977271963	2
0	4241	1054.597065943447	3
0	4242	1056.456639949407	2
0	4247	1056.610205522917	1
0	4254	1058.451193142298	0
0	4268	1060.801289395245	1
0	4271	1062.924660076678	0
0	4292	1069.149692761139	1
0	4293	1069.605231037052	0
0	4341	1093.578332572343	1
0	4342	1093.773423906636	0
0	4428	1122.805605443158	1
0	4429	1123.093313210269	0
0	4468	1131.477391727986	1
0	4470	1131.71780214752	2
0	4472	1132.472172129653	1
0	4477	1132.473217526894	0
0	4526	1141.182536978369	1
0	4528	1142.875976814877	0
0	4581	1164.745016445676	1
0	4582	1165.24990846554	0
0	4588	1165.626809061983	1
0	4589	1165.806652142844	0
0	4630	1178.624622794276	1
0	4631	1178.99426308013	0
0	4643	1181.247843495707	1
0	4644	1181.899036082296	0
0	4710	1201.836669436734	1
0	4712	1202.652449560475	0
0	4719	1203.562585556153	1
0	4720	1204.665717950903	0
0	4728	1207.297491461651	1
0	4729	1209.369861807006	0
0	4749	1212.052519915794	1
0	4750	1212.151201003748	0
0	4850	1244.378506652323	1
0	4851	1246.394533937021	0
0	4858	1248.786063507699	1
0	4860	1248.803324982916	2
0	4861	1249.056259419887	1
0	4870	1249.641677112335	0
0	4900	1254.598572229546	1
0	4901	1255.802652100172	0
0	4921	1260.745129576054	1
0	4923	1261.824247612389	2
0	4924	1262.45204455184	1
0	4930	1262.934418339769	0
0	4949	1266.011230817847	1
0	4953	1267.691837264222	2
0	4958	1268.708884921857	3
0	4959	1269.116410180195	2
0	4964	1269.492770091038	1
0	4970	1269.768679138989	0
0	4979	1271.834742569215	1
0	4980	1272.291777571849	0
0	5003	1277.78511104271	1
0	5004	1279.461804241267	0
0	5100	1308.646195929826	1
0	5103	1310.784458425963	0
0	5174	1324.776535737166	1
0	5175	1325.279186929734	0
0	5181	1325.359326428368	1
0	5183	1326.8773896137	0
0	5189	1327.08455334348	1
0	5192	1328.020836201505	0
0	5207	1330.915455250961	1
0	5208	1331.99588805655	0
0	5230	1337.023132911503	1
0	5231	1338.187142770822	0
0	5268	1345.019345891234	1
0	5270	1345.702992823777	2
0	5271	1346.553230874956	1
0	5277	1347.641717638461	2
0	5279	1348.957940780876	1
0	5285	1349.977573448405	0
0	5291	1350.259992237029	1
0	5292	1350.260817605187	0
0	5336	1365.213052239236	1
0	5337	1365.511771811472	0
0	5349	1367.655260196454	1
0	5350	1368.416285612127	0
0	5368	1370.860238248985	1
0	5370	1371.075673018031	2
0	5372	1371.32743435018	3
0	5376	1373.307444638059	4
0	5377	1373.896713074611	3
0	5382	1374.079153990143	2
0	5389	1374.432101903422	1
0	5394	1374.601772649972	0
0	5400	1374.605469984081	1
0	5402	1374.642174697093	2
0	5404	1374.991992774109	1
0	5409	1375.373782782712	0
0	5451	1387.886648490074	1
0	5454	1390.09663102671	0
0	5486	1401.917033418962	1
0	5487	1402.023232224122	0
0	5557	1419.115333772977	1
0	5560	1419.195185118427	0
0	5566	1419.304557987172	1
0	5569	1419.938931504415	2
0	5572	1422.183860121211	1
0	5580	1422.601200749186	0
0	5586	1422.867711730579	1
0	5588	1423.058135597575	2
0	5591	1423.974508244939	1
0	5599	1425.067044742623	2
0	5602	1425.103921867442	1
0	5607	1425.485722386307	0
0	5643	1429.667353928642	1
0	5645	1429.818132335307	0
0	5669	1435.502824278132	1
0	5671	1435.706841946418	2
0	5673	1436.575635267869	3
0	5674	1437.258676267539	2
0	5679	1437.325195133582	1
0	5685	1438.715867216406	2
0	5689	1439.633877872191	1
0	5695	1439.639596411757	2
0	5696	1439.641699067324	1
0	5701	1439.860977528969	0
0	5720	1442.283986516991	1
0	5722	1443.80110814488	2
0	5724	1444.603370763596	1
0	5729	1445.838835652695	0
0	5762	1451.359606205861	1
0	5763	1454.279133307891	0
0	5769	1454.591587143119	1
0	5770	1456.210820076267	0
0	5799	1466.994947095699	1
0	5803	1467.777577987135	2
0	5804	1467.891941774485	1
0	5810	1469.001458644951	0
0	5824	1473.178729282195	1
0	5825	1474.080720326981	0
0	5882	1482.824621043999	1
0	5884	1483.094184080076	2
0	5886	1488.164709919561	3
0	5887	1488.604134730442	2
0	5893	1488.731988124813	1
0	5902	1489.394552897488	0
0	5925	1494.080355425384	1
0	5926	1494.275923901433	0
0	5954	1502.064502144697	1
0	5956	1502.098767659387	2
0	5957	1502.375014430324	1
0	5963	1503.155755937396	2
0	5966	1503.929590460074	1
0	5971	1505.158665393854	0
0	6051	1520.388720577121	1
0	6052	1520.531347879535	0
0	6089	1529.300799548955	1
0	6090	1529.377666854877	0
0	6148	1548.551747993881	1
0	6152	1549.472040291626	2
0	6153	1550.203501716639	1
0	6158	1550.309726183023	0
0	6182	1556.628960640137	1
0	6184	1556.83715177121	2
0	6185	1557.308109133847	1
0	6191	1557.865866385091	0
0	6207	1561.661894458072	1
0	6208	1562.418360991772	0
0	6226	1564.009606209516	1
0	6228	1565.549805310334	2
0	6230	1565.662661797102	3
0	6231	1566.585547152706	2
0	6239	1566.781496257679	3
0	6241	1567.380973732114	2
0	6251	1568.786702602911	3
0	6255	1572.239093433318	4
0	6256	1573.437132037307	3
0	6261	1573.988187935583	2
0	6267	1574.653670273135	1
0	6275	1574.965002727719	2
0	6276	1575.345277293349	1
0	6283	1578.06600482552	0
0	6308	1583.586845733592	1
0	6313	1586.330417906478	0
0	6325	1586.798734047089	1
0	6326	1588.191836009543	0
0	6357	1594.74632837052	1
0	6358	1596.778782755419	0
0	6371	1598.636384957957	1
0	6373	1598.659330728145	0
0	6410	1608.883184081028	1
0	6413	1609.574738296806	0
0	6489	1629.405778407237	1
0	6491	1630.382532657496	2
0	6495	1633.354372727786	3
0	6496	1634.465156620833	2
0	6501	1635.044473429352	1
0	6506	1635.150034757616	0
0	6544	1641.032228840248	1
0	6548	1643.748284508726	2
0	6549	1644.152539846614	1
0	6556	1644.375378167727	2
0	6557	1644.598482893865	1
0	6563	1646.662441038415	2
0	6565	1646.764764281821	1
0	6573	1649.382131858037	2
0	6574	1650.754790909706	1
0	6579	1651.071009338391	0
0	6599	1655.721430775328	1
0	6603	1656.572325530794	2
0	6605	1656.586858035752	3
0	6607	1656.846694217999	2
0	6613	1657.083426128688	1
0	6619	1657.485296105998	0
0	6638	1658.751724061992	1
0	6639	1659.011565652015	0
0	6666	1662.166159467871	1
0	6667	1662.560116709388	0
0	6717	1672.781908243405	1
0	6720	1674.812470185853	0
0	6736	1679.774919580507	1
0	6738	1680.155200163822	0
0	6745	1680.439130878273	1
0	6747	1680.496314733344	2
0	6750	1682.415767242335	1
0	6756	1682.873334036178	2
0	6757	1682.909729231881	1
0	6763	1682.963210967046	2
0	6764	1683.941255472666	1
0	6770	1684.771317726957	0
0	6791	1696.315091866909	1
0	6793	1696.338821639566	2
0	6794	1696.672525902574	1
0	6800	1697.268313122133	0
0	6814	1701.06772527709	1
0	6816	1701.42572018511	2
0	6818	1701.962906120663	3
0	6820	1702.015190919234	4
0	6821	1703.306083627103	3
0	6827	1705.973511838209	2
0	6833	1706.925027385416	1
0	6840	1707.570696060948	0
0	6855	1712.532238287801	1
0	6856	1713.009407689107	0
0	6872	1719.812057825243	1
0	6874	1720.261584298201	2
0	6875	1721.372205286448	1
0	6881	1721.749499291284	2
0	6883	1722.108495594189	1
0	6889	1722.142012956614	2
0	6891	1722.335085398771	3
0	6894	1722.458440056185	4
0	6895	1723.66957225069	3
0	6900	1723.734147645144	2
0	6906	1723.784056867606	3
0	6907	1724.07855596275	2
0	6912	1725.541160676248	1
0	6918	1726.068453917193	2
0	6920	1726.736660443841	3
0	6921	1726.86080943307	2
0	6927	1726.952285746777	3
0	6928	1727.949930961875	2
0	6932	1729.846066379807	3
0	6936	1730.802168150483	2
0	6941	1730.944839104146	1
0	6949	1732.750674290453	0
0	6958	1734.807652959841	1
0	6960	1735.315852999647	2
0	6962	1735.556402639481	3
0	6964	1735.996481923715	2
0	6969	1736.235422329231	1
0	6975	1737.109336737762	2
0	6976	1737.122756556823	1
0	6982	1738.768709512708	0
0	6993	1738.79272115749	1
0	6995	1739.033456726839	2
0	6998	1740.266595675065	1
0	7003	1740.395459965489	0
0	7010	1741.190408525222	1
0	7011	1741.784354916332	0
0	7035	1748.23372819023	1
0	7037	1749.087044089474	0
0	7068	1753.33080295643	1
0	7070	1754.061902293833	2
0	7072	1756.236299357465	3
0	7073	1756.264861687603	2
0	7078	1756.638070358875	1
0	7083	1756.639739491619	0
0	7114	1768.573425643327	1
0	7115	1769.07370409803	0
0	7132	1777.03507485357	1
0	7133	1777.124390727561	0
0	7150	1783.035381497019	1
0	7151	1783.267476303361	0
0	7171	1792.117125049025	1
0	7177	1794.182056278644	2
0	7181	1797.018875318507	3
0	7183	1797.023238724086	4
0	7184	1797.45046862358	3
0	7190	1799.12264084421	2
0	7195	1799.170759476944	1
0	7202	1800.252604777838	0
0	7210	1801.656197623042	1
0	7211	1801.822560473725	0
0	7225	1804.63116401583	1
0	7229	1805.139302966327	2
0	7231	1805.352426567753	3
0	7232	1806.418988640995	2
0	7240	1808.515908663791	1
0	7245	1808.585858850884	0
0	7251	1809.081040658976	1
0	7252	1809.086663301085	0
0	7265	1810.878591038996	1
0	7267	1811.575375309745	2
0	7269	1812.443028182074	1
0	7275	1812.688581300926	0
0	7286	1813.251478429885	1
0	7288	1814.84678985866	0
0	7313	1817.93434574938	1
0	7314	1818.308211553785	0
0	7334	1822.164617652287	1
0	7336	1823.358402834124	0
0	7352	1824.37031500323	1
0	7354	1824.922817737195	0
0	7376	1829.230518175836	1
0	7377	1831.782273689603	0
0	7389	1834.567526678948	1
0	7392	1836.204364187364	0
0	7434	1844.390682631229	1
0	7437	1844.972953394308	0
0	7458	1850.649652959545	1
0	7462	1851.907532994976	2
0	7463	1852.363276758025	1
0	7470	1853.52289451473	0
0	7487	1860.056212358291	1
0	7488	1860.379143946633	0
0	7544	1871.59337784959	1
0	7546	1872.50007870999	2
0	7548	1873.267715846589	3
0	7549	1873.691166366041	2
0	7555	1874.133854821522	3
0	7556	1874.497648268878	2
0	7563	1874.978829287551	3
0	7568	1875.385443138739	4
0	7570	1875.386798115304	5
0	7571	1876.197572859672	4
0	7576	1877.396781994931	3
0	7581	1878.093744064254	2
0	7589	1879.537699232216	3
0	7590	1879.671029786574	2
0	7595	1880.385910511037	1
0	7600	1881.133984141625	0
0	7611	1882.326025247426	1
0	7613	1883.744045369032	0
0	7641	1888.859193330101	1
0	7642	1889.272245180794	0
0	7670	1891.597560740542	1
0	7673	1892.714482643739	0
0	7685	1894.61929434265	1
0	7687	1895.085983187603	2
0	7688	1895.218412019079	1
0	7698	1896.50634604873	2
0	7701	1897.53220169356	3
0	7705	1899.842626213972	2
0	7710	1900.475271523864	1
0	7715	1901.041284223794	0
0	7738	1908.386159594371	1
0	7741	1908.66088886031	2
0	7742	1908.918359431806	1
0	7749	1910.736778237989	2
0	7750	1910.782024424371	1
0	7755	1911.305225138166	0
0	7761	1911.451809012243	1
0	7762	1911.592385765604	0
0	7772	1912.806668541236	1
0	7776	1913.291994721217	2
0	7777	1913.671899348238	1
0	7782	1914.947556743636	0
0	7795	1916.102268201094	1
0	7797	1916.242098472437	2
0	7798	1916.258741567719	1
0	7804	1917.045585278791	0
0	7826	1923.406142334922	1
0	7829	1923.939093960461	0
0	7868	1932.530045575323	1
0	7869	1933.592544585385	0
0	7882	1934.433923697915	1
0	7883	1934.626338867006	0
0	7972	1956.059553573438	1
0	7973	1959.032995967118	0
0	7988	1962.177614453728	1
0	7992	1964.563987284699	0
0	8012	1966.459892015507	1
0	8013	1967.55946216057	0
0	8057	1981.485906831112	1
0	8059	1981.625646386034	2
0	8061	1982.565681208292	3
0	8062	1982.706344083947	2
0	8067	1982.771131336454	1
0	8073	1982.900259582216	2
0	8074	1982.962910994596	1
0	8079	1983.029754626672	0
0	8104	1988.742701416676	1
0	8106	1990.342497931998	0
0	8130	1992.915634894881	1
0	8131	1993.513873235016	0
0	8158	2001.311910394921	1
0	8159	2001.515068380149	0
0	8165	2002.212760383259	1
0	8167	2002.284261333041	2
0	8169	2002.754356196142	3
0	8171	2004.559413158461	2
0	8177	2005.690873427798	1
0	8182	2006.06960881023	0
0	8198	2009.261482486186	1
0	8200	2009.396508988539	2
0	8202	2009.712966789677	3
0	8203	2010.162913846506	2
0	8209	2010.776984590715	1
0	8215	2010.78814086242	2
0	8217	2010.862459973618	1
0	8222	2012.574567220651	0
0	8233	2015.113945583978	1
0	8235	2015.642421313377	2
0	8236	2015.75839670692	1
0	8241	2016.318414597088	0
0	8321	2037.665410841855	1
0	8322	2038.513510544991	0
0	8343	2041.452331791882	1
0	8344	2046.759330050867	0
0	8356	2047.703234547754	1
0	8357	2047.76890496296	0
0	8365	2048.720831404322	1
0	8366	2050.696580649038	0
0	8372	2050.934795517859	1
0	8373	2051.407213197514	0
0	8389	2055.718481088612	1
0	8390	2056.143811831642	0
0	8447	2075.200741998675	1
0	8450	2075.977283047659	2
0	8451	2076.330665623659	1
0	8456	2076.476183732042	0
0	8480	2082.360924111269	1
0	8481	2082.928523045046	0
0	8503	2085.099641718115	1
0	8507	2088.749799003554	2
0	8508	2088.890724391609	1
0	8513	2088.963012617968	0
0	8558	2102.825453264121	1
0	8560	2102.829252417284	2
0	8562	2103.619208760416	1
0	8567	2103.62533798305	0
0	8573	2103.7019191676	1
0	8574	2104.260545590495	0
0	8591	2108.54801366999	1
0	8592	2108.666588530366	0
0	8673	2128.885132218282	1
0	8677	2131.367254604542	2
0	8679	2131.553087383398	3
0	8680	2131.966139262067	2
0	8686	2132.503034516352	3
0	8688	2132.601732181953	2
0	8694	2133.402553130155	1
0	8705	2134.983566754892	0
0	8720	2136.428012100734	1
0	8723	2136.641350263965	0
0	8730	2136.73637351015	1
0	8731	2137.113525773456	0
0	8737	2137.364192997528	1
0	8738	2138.273223706467	0
0	8767	2144.793226215328	1
0	8770	2146.215686932801	2
0	8771	2146.945958257696	1
0	8778	2147.194025834318	2
0	8779	2147.895624358971	1
0	8785	2149.448353318168	2
0	8786	2150.195758295454	1
0	8792	2150.942763628193	0
0	8803	2152.185945873128	1
0	8805	2152.748969614377	2
0	8809	2153.975056771528	3
0	8814	2156.311874691338	2
0	8819	2156.441398971755	1
0	8825	2156.866623210241	2
0	8826	2157.483732365459	1
0	8832	2157.535340508297	2
0	8838	2160.143577205464	1
0	8845	2160.738527583829	2
0	8846	2162.360110909356	1
0	8853	2162.516920430762	2
0	8857	2163.643925655522	1
0	8862	2164.27117517729	0
0	8875	2165.771433328359	1
0	8877	2166.662127166306	0
0	8903	2176.589023356827	1
0	8904	2177.337902129523	0
0	8928	2185.687003701531	1
0	8930	2185.91265754903	0
0	8944	2191.257336052466	1
0	8946	2191.401503221116	2
0	8948	2191.446478341774	3
0	8949	2192.110751106721	2
0	8954	2192.144964383612	1
0	8960	2192.397280455983	2
0	8964	2193.165523371978	1
0	8975	2196.038010145782	2
0	8976	2197.339516888731	1
0	8983	2197.555262212938	2
0	8984	2197.641549148181	1
0	8989	2198.363194088893	0
0	9034	2210.300542599496	1
0	9037	2211.003431323691	0
0	9044	2212.404695541192	1
0	9045	2213.37557297683	0
0	9066	2226.800283974739	1
0	9071	2228.158465499313	0
0	9077	2228.242430417679	1
0	9079	2229.315466103428	0
0	9085	2230.350786292149	1
0	9087	2231.415233574988	0
0	9093	2232.077591176362	1
0	9096	2232.889581945809	0
0	9102	2232.939336584611	1
0	9103	2233.304014547272	0
0	9111	2233.634514239071	1
0	9115	2235.533051623239	0
0	9129	2237.954307700916	1
0	9130	2238.359657779759	0
0	9163	2245.243939048617	1
0	9164	2245.401809836627	0
0	9182	2250.542117856826	1
0	9184	2251.723823309557	2
0	9185	2251.835750090854	1
0	9191	2252.111664283285	2
0	9194	2252.635196422249	1
0	9199	2252.919705945827	0
0	9213	2254.279074157525	1
0	9217	2255.077519657546	0
0	9247	2261.598839221536	1
0	9254	2266.920582385991	0
0	9268	2269.2235999189	1
0	9271	2270.237837510356	2
0	9272	2270.519390939191	1
0	9277	2270.676599778908	0
0	9283	2270.883375952173	1
0	9286	2271.46088310171	2
0	9288	2271.767416860578	3
0	9290	2272.41089485026	2
0	9296	2273.760360348057	1
0	9301	2273.995848336145	0
0	9349	2285.258183130685	1
0	9351	2285.326414189914	2
0	9352	2285.464859641265	1
0	9360	2286.036294825159	0
0	9366	2287.040589746042	1
0	9368	2287.103957723649	0
0	9420	2299.221043646983	1
0	9422	2299.352218366181	2
0	9423	2299.383296831549	1
0	9429	2300.927938710104	0
0	9480	2313.567987205007	1
0	9482	2314.298688236875	2
0	9487	2318.035164771885	3
0	9491	2319.792406008999	4
0	9493	2321.427037091533	5
0	9494	2322.624918193023	4
0	9500	2324.335977132031	3
0	9505	2324.753180122811	2
0	9512	2325.962572842215	1
0	9518	2328.922700624154	0
0	9596	2346.940702342499	1
0	9599	2347.36745690957	0
0	9614	2349.473531521723	1
0	9619	2352.927038394523	0
0	9633	2353.829322932096	1
0	9634	2357.087820923285	0
0	9641	2357.906960588266	1
0	9642	2358.039251125398	0
0	9660	2361.537906155207	1
0	9662	2361.811795087232	2
0	9663	2362.756244151727	1
0	9669	2363.393313669553	2
0	9670	2364.15843616838	1
0	9678	2365.569958683364	0
0	9698	2370.748106210897	1
0	9701	2372.349448272375	0
0	9714	2374.380001229228	1
0	9716	2374.458150809524	2
0	9720	2375.967088966543	1
0	9725	2375.995158410224	0
0	9737	2378.01363703011	1
0	9738	2378.086402919507	0
0	9769	2383.913503121458	1
0	9777	2385.994048813195	0
0	9783	2386.148235881336	1
0	9784	2386.440808899842	0
0	9818	2396.989677110758	1
0	9821	2398.489898130902	0
0	9827	2399.220970547128	1
0	9831	2400.272688756114	0
0	9850	2401.252484747259	1
0	9851	2402.068269480779	0
0	9863	2406.236712231873	1
0	9864	2407.831611788807	0
0	9871	2408.115809188238	1
0	9874	2408.709543378974	0
0	9880	2408.847060010534	1
0	9881	2409.572873407123	0
0	9888	2410.13106432778	1
0	9890	2410.531089977707	0
0	9911	2415.138300237175	1
0	9913	2415.536108598383	2
0	9915	2416.013668686671	3
0	9916	2417.036138954777	2
0	9923	2417.554262536317	1
0	9929	2417.694478678449	2
0	9930	2418.259891600282	1
0	9938	2419.344079258562	0
0	9957	2424.428435612196	1
0	9958	2424.490582631964	0
0	9983	2435.293208413335	1
0	9985	2435.335141826097	2
0	9986	2436.411442775393	1
0	9992	2436.98860778428	0
0	10019	2440.929651826322	1
0	10024	2442.9966413904	0
0	10040	2445.758255407073	1
0	10041	2446.297694868622	0
0	10052	2446.855514086859	1
0	10054	2448.487805423385	0
0	10063	2450.007467293057	1
0	10064	2450.227546053964	0
0	10129	2476.064591784888	1
0	10132	2476.862033530215	2
0	10133	2476.950515619423	1
0	10138	2477.442949269821	0
0	10162	2482.629562941677	1
0	10163	2483.782977305838	0
0	10177	2484.649444214888	1
0	10178	2485.224823675412	0
0	10194	2486.375364032066	1
0	10195	2486.849952658305	0
0	10226	2492.294234355734	1
0	10227	2493.082848609215	0
0	10258	2509.210524224569	1
0	10260	2509.847131949388	2
0	10261	2511.177003321902	1
0	10268	2513.129752605327	0
0	10304	2522.004754668567	1
0	10306	2523.631708037843	2
0	10308	2523.829243941425	3
0	10310	2525.055734451991	4
0	10311	2525.202897234185	3
0	10318	2526.022008186929	2
0	10324	2526.058508878262	3
0	10325	2526.089740305631	2
0	10333	2527.261572833661	3
0	10334	2527.493537627413	2
0	10340	2529.720299859991	1
0	10345	2530.102394648249	0
0	10376	2539.960859579109	1
0	10379	2540.448439942205	0
0	10404	2543.86720333184	1
0	10405	2543.972461075833	0
0	10425	2545.779616240237	1
0	10426	2545.957396241999	0
0	10451	2550.306128418281	1
0	10453	2551.751341694694	0
0	10468	2554.445629658358	1
0	10469	2556.414562172632	0
0	10501	2574.974842679692	1
0	10502	2575.012744186546	0
0	10508	2576.597358582237	1
0	10509	2576.729610680314	0
0	10564	2593.437171702482	1
0	10565	2594.06897698283	0
0	10602	2598.688172475615	1
0	10604	2598.937904590664	2
0	10605	2599.89641862908	1
0	10610	2600.007564060425	0
0	10628	2607.510136534957	1
0	10630	2607.821296832328	2
0	10631	2608.801666992075	1
0	10636	2609.054971505993	0
0	10658	2610.871908312609	1
0	10659	2611.428868775675	0
0	10741	2640.993459588257	1
0	10745	2642.815172019998	2
0	10746	2643.328447088901	1
0	10753	2643.603167748399	0
0	10764	2645.993025801188	1
0	10766	2646.010566459197	2
0	10769	2647.15511095065	1
0	10774	2647.280556861676	0
0	10816	2652.897190800708	1
0	10817	2652.904544038671	0
0	10832	2653.578250395893	1
0	10834	2653.767146510504	2
0	10839	2655.656565179995	3
0	10841	2657.074695036255	2
0	10846	2657.323845184884	1
0	10852	2658.054838318693	0
0	10859	2658.164246194831	1
0	10861	2658.631435722293	2
0	10863	2659.659807076551	1
0	10869	2660.356307031885	2
0	10872	2660.722297022298	1
0	10879	2661.827845974799	2
0	10880	2661.841203620987	1
0	10885	2661.84992454528	0
0	10914	2673.35441795218	1
0	10918	2676.035163998705	2
0	10921	2677.649708104621	1
0	10926	2677.752155626352	0
0	10939	2680.704060852215	1
0	10941	2680.952445066279	2
0	10942	2682.088758913699	1
0	10947	2682.952935265831	0
0	10959	2684.026893911873	1
0	10960	2684.375026165423	0
0	10984	2686.490860242804	1
0	10986	2687.601517726512	2
0	10989	2688.042645001986	1
0	10994	2688.362565705931	0
0	11015	2691.432878891769	1
0	11020	2693.231774764407	0
0	11027	2693.856382349976	1
0	11030	2695.115436545009	0
0	11047	2696.307323761335	1
0	11048	2696.799843845031	0
0	11070	2700.152987286077	1
0	11072	2700.376649886075	2
0	11073	2700.630593303562	1
0	11081	2702.493391152739	0
0	11114	2706.228927292982	1
0	11115	2706.232808752911	0
0	11176	2724.173295583121	1
0	11178	2724.993915783796	2
0	11180	2725.279868194608	3
0	11181	2725.345487178484	2
0	11188	2726.221531662018	3
0	11190	2726.546729578512	4
0	11191	2728.206302682319	3
0	11198	2728.32496133448	4
0	11200	2728.532523910801	5
0	11201	2728.820480300374	4
0	11207	2728.850618949107	5
0	11208	2729.003118805217	4
0	11225	2732.249977480197	5
0	11226	2732.688304366853	4
0	11232	2734.210636189421	5
0	11236	2735.941611208033	4
0	11241	2736.229289717139	3
0	11247	2736.900822805612	2
0	11254	2738.091118677444	1
0	11260	2739.052876600833	2
0	11262	2739.28554376736	1
0	11267	2739.562296872201	0
0	11273	2739.592274557235	1
0	11274	2739.933395853736	0
0	11321	2748.834841837971	1
0	11324	2752.498585831428	0
0	11332	2753.289650433586	1
0	11333	2754.322509583008	0
0	11342	2755.005643403239	1
0	11347	2758.396852976719	0
0	11354	2758.697439057808	1
0	11355	2759.094961388483	0
0	11366	2760.128868471629	1
0	11369	2762.12898324892	0
0	11375	2762.228085745158	1
0	11376	2762.535460389685	0
0	11385	2763.376807491871	1
0	11387	2764.784488037372	2
0	11391	2767.678202860106	1
0	11397	2767.95270912954	2
0	11398	2769.440703474786	1
0	11403	2771.002649889842	0
0	11411	2774.772972989927	1
0	11412	2775.691825743036	0
0	11416	2776.634993011541	1
0	11424	2777.759614114504	2
0	11430	2780.84146092825	1
0	11436	2780.890526283411	2
0	11438	2781.391444907601	1
0	11443	2781.404338046804	0
0	11471	2787.586864658405	1
0	11473	2787.923311780323	2
0	11480	2792.952877344171	1
0	11486	2793.879796545079	0
0	11502	2796.304283253567	1
0	11503	2797.425952976008	0
0	11540	2805.625101533454	1
0	11542	2805.73051645578	0
0	11566	2813.797011852607	1
0	11569	2814.730524553184	0
0	11589	2817.682574900314	1
0	11590	2818.267942956494	0
0	11645	2836.39396311026	1
0	11647	2837.315603516805	2
0	11648	2840.150404631044	1
0	11656	2840.551274327534	2
0	11659	2841.435611881625	1
0	11664	2841.646490014292	0
0	11691	2846.536723571986	1
0	11692	2848.024810152473	0
0	11701	2848.989355902259	1
0	11704	2850.896002153481	0
0	11717	2853.853179387196	1
0	11720	2855.277853203547	0
0	11729	2856.633549892608	1
0	11731	2856.795274809143	2
0	11743	2858.926430356757	1
0	11753	2860.495351380508	0
0	11765	2860.943092804077	1
0	11767	2862.633795698503	2
0	11768	2862.72241996884	1
0	11776	2863.91815749028	2
0	11778	2864.154508850215	3
0	11780	2864.829581083303	4
0	11781	2865.512833467156	3
0	11792	2868.732596822295	2
0	11798	2868.87154479327	3
0	11799	2869.07377148808	2
0	11805	2870.166213449395	1
0	11811	2870.240522539016	2
0	11812	2870.289262346456	1
0	11817	2870.484466591813	0
0	11829	2873.305544471808	1
0	11833	2874.008473456634	2
0	11838	2874.575109776185	1
0	11847	2875.485191421238	2
0	11850	2877.657086034029	1
0	11856	2878.489975647317	0
0	11862	2878.553439353395	1
0	11866	2878.723095284553	0
0	11882	2883.57416151552	1
0	11889	2885.7125117907	2
0	11891	2887.238373112115	3
0	11892	2887.493743841645	2
0	11897	2889.053581964496	1
0	11907	2891.115419757321	0
0	11919	2892.018199967215	1
0	11922	2892.980741887181	0
0	11954	2898.824530003282	1
0	11955	2900.277963357347	0
0	11976	2904.282181394286	1
0	11979	2905.171042587347	0
0	11989	2906.051251454837	1
0	11991	2906.190024516195	2
0	11997	2908.611418270882	3
0	11998	2908.958093161455	2
0	12003	2909.12951307933	1
0	12009	2909.806164484436	0
0	12031	2911.717561414917	1
0	12034	2912.123763948055	0
0	12040	2912.555781850252	1
0	12042	2914.359473543831	0
0	12048	2914.741794045208	1
0	12052	2915.402444295345	0
0	12091	2925.029959623238	1
0	12092	2925.593630012213	0
0	12107	2927.08101432314	1
0	12109	2928.305334868057	0
0	12119	2929.815156461079	1
0	12124	2932.873692508013	0
0	12138	2937.358493562084	1
0	12142	2939.602163871945	0
0	12159	2944.786560348098	1
0	12163	2945.493845060866	2
0	12164	2946.040510054541	1
0	12171	2950.103363227118	2
0	12172	2950.724016815365	1
0	12177	2951.170338980771	0
0	12186	2952.697551548911	1
0	12192	2956.43403260851	0
0	12203	2956.747237525265	1
0	12208	2958.944490787007	0
0	12214	2959.702865896067	1
0	12219	2961.134254280941	0
0	12233	2964.868684195645	1
0	12237	2968.726802927041	0
0	12254	2970.431773392873	1
0	12256	2972.174744144404	2
0	12257	2972.526237381374	1
0	12262	2972.765957891767	0
0	12268	2973.130037670633	1
0	12269	2973.148632834622	0
0	12276	2975.184970650685	1
0	12280	2976.315526627212	0
0	12310	2985.114007448207	1
0	12311	2986.150723781056	0
0	12322	2989.229980927342	1
0	12324	2989.602131718987	0
0	12337	2991.682855423271	1
0	12339	2991.769896485093	2
0	12340	2991.824978409692	1
0	12345	2992.838777772213	0
0	12390	3006.686216164084	1
0	12394	3007.547092304802	2
0	12395	3007.566794456425	1
0	12400	3008.254720629059	0
0	12409	3009.176318583323	1
0	12411	3009.756009759838	2
0	12417	3014.652967999405	3
0	12420	3015.076170415637	2
0	12426	3016.160390272531	3
0	12428	3017.488546541534	2
0	12434	3017.610675263852	3
0	12435	3017.662748817715	2
0	12444	3019.024026477432	1
0	12449	3019.951418670908	0
0	12513	3038.056869384685	1
0	12514	3038.444270321605	0
0	12521	3040.671686378525	1
0	12522	3041.509021538507	0
0	12567	3047.499363909125	1
0	12572	3048.703653815429	0
0	12586	3055.070761593413	1
0	12587	3056.11309927785	0
0	12608	3059.79642314036	1
0	12610	3060.109580824073	2
0	12612	3062.462458215011	3
0	12617	3063.300256490677	2
0	12623	3065.628180213551	1
0	12629	3066.218921611014	2
0	12630	3066.521377416791	1
0	12635	3066.996572791719	0
0	12641	3067.056222666659	1
0	12643	3068.746607164377	0
0	12670	3072.834349644767	1
0	12675	3074.853835922644	0
0	12684	3076.91903483283	1
0	12693	3078.615696030271	2
0	12695	3078.876910564016	3
0	12696	3079.432497114414	2
0	12702	3083.033152949586	1
0	12707	3083.358937466297	0
0	12727	3087.979991271721	1
0	12728	3093.618592965622	0
0	12746	3098.348983192607	1
0	12747	3098.490078083221	0
0	12773	3100.592722666879	1
0	12777	3101.741190250038	0
0	12795	3103.89340480848	1
0	12799	3105.643239705314	2
0	12801	3105.869177837318	3
0	12806	3108.27561203094	4
0	12807	3108.379371141249	3
0	12813	3111.322865478717	2
0	12821	3114.057252689345	3
0	12822	3114.204360022009	2
0	12828	3115.960642000765	3
0	12829	3116.349721749215	2
0	12834	3117.090470112048	1
0	12843	3118.962912514578	0
0	12890	3126.85848849649	1
0	12891	3127.021208428727	0
0	12897	3127.034350336751	1
0	12899	3128.058128447226	0
0	12969	3144.777979980063	1
0	12970	3144.836097473601	0
0	12999	3150.000269338169	1
0	13000	3150.81938229294	0
0	13015	3154.916365613772	1
0	13016	3156.519559183763	0
0	13022	3156.80991225699	1
0	13024	3158.454598325342	0
0	13038	3161.95487592027	1
0	13039	3162.434525478705	0
0	13045	3164.330358266842	1
0	13047	3164.64590648456	2
0	13048	3164.71535047554	1
0	13054	3165.49552109217	0
0	13102	3178.203265090516	1
0	13103	3178.539712521891	0
0	13134	3191.230625396159	1
0	13135	3191.468009783941	0
0	13151	3195.080961613088	1
0	13154	3195.715677004482	0
0	13161	3196.569430447536	1
0	13165	3196.826516499805	2
0	13170	3200.072523999235	1
0	13176	3201.108279374187	0
0	13183	3203.737947095112	1
0	13184	3204.681242841558	0
0	13197	3206.430446305168	1
0	13198	3206.85484644709	0
0	13210	3208.757175393013	1
0	13216	3210.384526717582	0
0	13229	3213.082614561754	1
0	13230	3213.595338819651	0
0	13237	3215.651918384819	1
0	13238	3217.824029538394	0
0	13247	3218.365713481555	1
0	13248	3218.479836299173	0
0	13264	3219.167327055041	1
0	13268	3220.744128596164	2
0	13270	3220.935966967122	3
0	13272	3221.285305276827	4
0	13274	3222.012300821516	5
0	13275	3222.346629575388	4
0	13280	3222.580501755435	3
0	13285	3222.98534017715	2
0	13291	3224.839916921432	3
0	13293	3225.187313591405	4
0	13295	3225.559582946943	5
0	13296	3225.984791837153	4
0	13302	3228.004084167466	3
0	13307	3228.743553918126	2
0	13311	3230.312265484677	3
0	13318	3232.354036705153	2
0	13325	3233.469654499583	1
0	13330	3233.544560800369	0
0	13360	3235.972246514808	1
0	13363	3237.649450289343	2
0	13365	3238.295345301058	1
0	13371	3238.342471351519	2
0	13375	3239.070378397183	3
0	13377	3240.061537690984	2
0	13383	3241.808979552614	1
0	13388	3241.86864730162	0
0	13423	3246.921953406273	1
0	13424	3248.0907997431	0
0	13478	3268.087809270753	1
0	13486	3271.071208953723	0
0	13492	3271.160576517232	1
0	13494	3271.661377830403	2
0	13496	3271.721398574641	3
0	13497	3272.016732162003	2
0	13502	3272.605754120677	1
0	13507	3272.838214002487	0
0	13514	3273.270713374472	1
0	13516	3273.365105778149	2
0	13517	3273.778195313088	1
0	13526	3276.514986307316	2
0	13528	3278.741144184793	3
0	13530	3278.945675039271	4
0	13532	3279.018903716644	5
0	13534	3280.091669196682	6
0	13535	3280.257062072602	5
0	13542	3281.8586623948	6
0	13544	3282.030528629344	7
0	13547	3282.85302267092	6
0	13553	3284.788001215266	5
0	13558	3285.095390233424	4
0	13566	3286.639129450985	5
0	13567	3286.683355604274	4
0	13572	3287.95319106822	3
0	13576	3289.292181895626	4
0	13581	3289.825711454355	3
0	13587	3292.465995954289	2
0	13593	3293.090825415295	3
0	13594	3293.214434591571	2
0	13599	3294.729585813152	1
0	13603	3294.985577281386	2
0	13605	3295.196433825677	3
0	13607	3295.641976074161	4
0	13610	3297.099791314386	3
0	13614	3297.544312510489	4
0	13617	3298.235377054799	3
0	13621	3299.07955792161	4
0	13624	3299.59642488349	3
0	13630	3299.938158054643	4
0	13634	3302.51655665902	3
0	13639	3302.627629651809	2
0	13644	3304.524954407647	1
0	13648	3306.412577313329	2
0	13654	3308.50974218437	1
0	13659	3308.702971663221	0
0	13665	3309.569397271991	1
0	13666	3311.064074075459	0
0	13670	3312.290707418434	1
0	13673	3313.121467035167	0
0	13677	3313.127696766138	1
0	13682	3315.686378878124	0
0	13689	3316.798022711317	1
0	13694	3317.681217538736	0
0	13701	3318.002266828135	1
0	13706	3322.201414238834	2
0	13707	3322.711708319641	1
0	13713	3322.803986063808	2
0	13716	3323.462153932861	3
0	13717	3323.750196600155	2
0	13722	3323.763236403287	1
0	13727	3324.794698506844	0
0	13743	3326.388439273929	1
0	13744	3326.622268987963	0
0	13766	3329.351385596163	1
0	13774	3335.339781794702	0
0	13795	3337.91760606597	1
0	13796	3338.398944498159	0
0	13822	3342.488727255107	1
0	13825	3343.426421380859	0
0	13834	3344.874715089358	1
0	13839	3347.785563061047	2
0	13840	3348.020171815793	1
0	13845	3349.303811039232	0
0	13851	3349.457887143891	1
0	13855	3352.211888111729	0
0	13863	3353.552355458389	1
0	13865	3353.719648213127	2
0	13866	3354.207070673965	1
0	13874	3355.509401877328	0
0	13895	3356.417198289867	1
0	13897	3357.168797843537	2
0	13898	3357.611494365496	1
0	13903	3357.842535537075	0
0	13917	3359.810168241558	1
0	13919	3359.859287388767	2
0	13922	3360.493721641684	3
0	13924	3360.585672116862	4
0	13927	3361.738926639855	3
0	13932	3363.427887149014	2
0	13937	3363.455228620134	1
0	13943	3364.26151963329	0
0	13953	3366.912927297578	1
0	13954	3367.012921535743	0
0	13982	3373.018211071391	1
0	13983	3373.975578732066	0
0	14004	3379.174189060803	1
0	14006	3380.362109418444	0
0	14017	3380.62551448282	1
0	14018	3381.950663102543	0
0	14024	3382.161573371853	1
0	14031	3383.973858136492	2
0	14032	3385.174437641874	1
0	14037	3385.259913346982	0
0	14063	3391.420063691572	1
0	14065	3392.470126388288	2
0	14069	3394.545569059033	1
0	14075	3395.829556372778	0
0	14086	3396.934274901869	1
0	14090	3398.046483294671	2
0	14091	3398.766911626746	1
0	14100	3401.164542479389	0
0	14106	3401.193911789031	1
0	14109	3402.857575272624	2
0	14110	3404.152399750954	1
0	14116	3404.208836332449	2
0	14119	3404.992814025854	1
0	14125	3405.329283527289	2
0	14127	3405.404785113001	3
0	14128	3407.153579051054	2
0	14133	3408.744555253459	1
0	14140	3410.662834622899	0
0	14156	3412.310879018254	1
0	14159	3413.752251942095	2
0	14160	3414.148902610175	1
0	14167	3415.021431124412	0
0	14189	3417.29916227053	1
0	14190	3418.01714402622	0
0	14216	3424.632308849505	1
0	14218	3425.602712648157	0
0	14231	3426.994581654533	1
0	14233	3427.98418329471	2
0	14234	3428.940777255572	1
0	14242	3430.170343515785	0
0	14353	3474.57372528792	1
0	14356	3475.287494861762	0
0	14363	3478.359031233458	1
0	14364	3478.719239261563	0
0	14372	3480.5374561904	1
0	14373	3480.564926542896	0
0	14392	3483.690173311008	1
0	14394	3483.951136160579	2
0	14395	3484.034245420495	1
0	14404	3485.245563538357	0
0	14425	3490.231021575737	1
0	14426	3490.384242066521	0
0	14502	3509.708047732354	1
0	14503	3510.528594077494	0
0	14523	3512.509313115765	1
0	14527	3513.874053840427	0
0	14549	3521.666142313683	1
0	14550	3523.387886431181	0
0	14564	3524.249724387239	1
0	14569	3527.540195932819	0
0	14581	3529.515584883682	1
0	14582	3529.811315058356	0
0	14593	3534.444771887979	1
0	14598	3537.468459801921	2
0	14599	3539.625712676002	1
0	14606	3540.697253120098	2
0	14608	3542.300435755582	1
0	14613	3542.312272368371	0
0	14671	3555.005544003666	1
0	14673	3556.150587567529	2
0	14675	3558.027946681542	3
0	14676	3558.5792287907	2
0	14683	3559.329806699051	3
0	14685	3560.905477344655	4
0	14691	3562.561295236155	5
0	14692	3563.933636786012	4
0	14698	3565.811317548137	3
0	14704	3566.889778387571	2
0	14709	3566.907359402831	1
0	14714	3568.086470000397	0
0	14735	3571.980052433742	1
0	14737	3572.628766334178	0
0	14751	3573.275673587094	1
0	14752	3574.107791291587	0
0	14767	3579.580927614301	1
0	14771	3581.513579520407	0
0	14787	3584.288131263959	1
0	14788	3584.761722492418	0
0	14808	3587.662992881965	1
0	14809	3587.848254733632	0
0	14815	3588.088284458813	1
0	14818	3594.025043838706	0
0	14831	3596.179180919688	1
0	14832	3596.40746383306	0
0	14845	3598.771934207386	1
0	14847	3599.528593542051	2
0	14849	3599.857702191449	3
0	14850	3600.023265666498	2
0	14857	3600.923862145431	1
0	14861	3602.857284037505	2
0	14863	3603.662309108094	3
0	14867	3606.655640964687	2
0	14875	3608.906519184426	3
0	14880	3609.821281394514	2
0	14885	3611.001660898361	1
0	14891	3612.751265813916	2
0	14892	3613.666695398202	1
0	14897	3615.401914645715	0
0	14905	3616.842657704326	1
0	14906	3616.916600981533	0
0	14912	3617.535618010506	1
0	14916	3619.05494559735	2
0	14918	3619.846829604312	1
0	14925	3620.49537849742	0
0	15009	3638.314310874176	1
0	15011	3638.932464388201	2
0	15012	3639.707836939357	1
0	15017	3640.015128154129	0
0	15033	3642.51991102221	1
0	15034	3642.886187741354	0
0	15040	3643.079676094406	1
0	15041	3643.713315846729	0
0	15067	3649.20932664908	1
0	15070	3649.984055893235	2
0	15071	3650.167895629514	1
0	15076	3650.297774188441	0
0	15109	3654.645580557139	1
0	15111	3655.466559986468	2
0	15113	3655.919818627798	3
0	15114	3656.012559559047	2
0	15125	3660.997733098564	1
0	15130	3662.631027285569	0
0	15149	3665.827528829566	1
0	15152	3666.663540459137	0
0	15192	3671.34438492749	1
0	15195	3672.924574252793	0
0	15236	3680.834765230524	1
0	15237	3681.532205843164	0
0	15244	3683.094284663618	1
0	15245	3683.922478763603	0
0	15270	3688.288284018369	1
0	15271	3688.546297157357	0
0	15278	3688.701659142429	1
0	15279	3688.857652503603	0
0	15292	3690.103483059679	1
0	15294	3690.696081958575	0
0	15316	3693.669652773237	1
0	15318	3697.135210794671	2
0	15319	3698.003590011808	1
0	15327	3698.688820035498	2
0	15329	3700.764080278476	3
0	15331	3700.897746948207	4
0	15333	3701.409066958264	5
0	15334	3702.901957817007	4
0	15340	3703.015254324949	5
0	15341	3703.406188737952	4
0	15348	3703.580647303655	5
0	15350	3705.175580439467	4
0	15360	3708.919112953299	3
0	15366	3711.483575645124	4
0	15369	3712.244580479279	3
0	15377	3713.157855169292	2
0	15384	3715.124506281753	1
0	15392	3716.924626747954	0
0	15451	3728.496229409191	1
0	15453	3728.733883486125	2
0	15454	3729.002804769516	1
0	15460	3730.920284722435	0
0	15476	3735.907088457598	1
0	15478	3737.154559390634	2
0	15479	3737.246273335168	1
0	15484	3737.323545088525	0
0	15497	3739.696286446395	1
0	15503	3741.281905629729	2
0	15505	3741.681533014279	3
0	15507	3743.458934471901	4
0	15508	3743.576453223416	3
0	15513	3743.980928630861	2
0	15519	3745.148126303711	1
0	15524	3745.883569089375	0
0	15560	3751.931625767774	1
0	15561	3752.208417008884	0
0	15587	3758.99695278293	1
0	15591	3760.050324083499	2
0	15592	3761.300170816001	1
0	15599	3762.050639208791	2
0	15602	3762.701591887921	1
0	15608	3762.943505892873	2
0	15610	3764.870450741962	1
0	15616	3765.336952345227	0
0	15624	3767.070393741571	1
0	15627	3768.077397815203	0
0	15638	3769.367763619106	1
0	15641	3771.021733372135	0
0	15658	3774.239338089109	1
0	15659	3774.882307988002	0
0	15677	3777.43841864658	1
0	15678	3777.662092846023	0
0	15685	3778.769748692651	1
0	15686	3779.619246110913	0
0	15709	3782.601198800576	1
0	15710	3784.332025934227	0
0	15716	3784.448044552663	1
0	15718	3785.562263018754	2
0	15722	3785.922302221053	1
0	15727	3786.291241209836	0
0	15746	3789.459381764819	1
0	15747	3789.668775008269	0
0	15784	3798.64655698862	1
0	15785	3798.902100815151	0
0	15808	3805.797245735119	1
0	15811	3805.811171381878	2
0	15812	3805.926492651728	1
0	15817	3806.249934295323	0
0	15836	3813.162461365944	1
0	15837	3813.289019784999	0
0	15856	3818.361963113959	1
0	15857	3818.823989801226	0
0	15898	3834.592701267231	1
0	15899	3834.808994282588	0
0	15945	3848.773933763588	1
0	15948	3849.980166974392	0
0	15994	3860.393000959528	1
0	15995	3861.821483745716	0
0	16026	3868.095848075977	1
0	16028	3868.285982322191	2
0	16029	3868.880670985037	1
0	16034	3869.311571604728	0
0	16059	3875.850049506125	1
0	16061	3876.277100536498	2
0	16062	3876.481402028857	1
0	16069	3876.881399694547	2
0	16070	3876.933900527133	1
0	16075	3877.519229216325	0
0	16088	3880.903295609965	1
0	16094	3882.924744708082	0
0	16112	3884.563926139729	1
0	16115	3885.144566675552	2
0	16120	3886.322183545471	3
0	16121	3887.060564381653	2
0	16127	3887.078494931621	3
0	16130	3887.570513897574	2
0	16135	3887.759633813295	1
0	16140	3888.290636371756	0
0	16144	3888.398447783182	1
0	16150	3888.717674411973	0
0	16161	3889.476103112475	1
0	16162	3889.712218267654	0
0	16198	3898.15389539448	1
0	16199	3899.124361476597	0
0	16274	3915.007821682231	1
0	16275	3915.274920837557	0
0	16292	3920.589630263367	1
0	16295	3921.750093500248	0
0	16313	3922.36574084662	1
0	16314	3923.197278604466	0
0	16355	3936.88219900654	1
0	16356	3937.341419478968	0
0	16384	3941.716294474178	1
0	16385	3943.479676185283	0
0	16428	3952.75039755934	1
0	16430	3955.25265602146	0
0	16434	3956.571562755987	1
0	16437	3957.705351446336	0
0	16443	3959.96521066894	1
0	16446	3961.635291339707	0
0	16452	3963.067269564156	1
0	16453	3963.173626548374	0
0	16502	3976.403673621586	1
0	16505	3977.989253068656	0
0	16541	3989.504249930934	1
0	16544	3990.797130322854	0
0	16550	3990.867871619006	1
0	16554	3991.928406804621	0
0	16570	3995.127199965858	1
0	16572	3995.36536116831	2
0	16574	3995.638438889367	3
0	16576	3996.105682523709	4
0	16578	3997.818038558985	5
0	16579	3997.94570653338	4
0	16588	3998.534617617299	5
0	16589	3998.763053367903	4
0	16594	3999.424533426598	3
0	16600	4000.218626890727	2
0	16605	4000.627755667593	1
0	16611	4001.688029027796	0
0	16665	4010.504420588985	1
0	16667	4010.597236474607	2
0	16669	4010.742484771472	1
0	16674	4011.192833536264	0
0	16692	4016.565531436258	1
0	16693	4017.669041204432	0
0	16704	4019.278874072838	1
0	16705	4020.458542124719	0
0	16761	4032.177775598458	1
0	16764	4034.120383622202	0
0	16771	4034.586343299817	1
0	16772	4034.967851966963	0
0	16794	4038.020524446483	1
0	16796	4038.111715488188	2
0	16798	4038.201959683982	3
0	16799	4038.455735944901	2
0	16804	4039.273105438557	1
0	16809	4040.599988718619	0
0	16826	4041.950116919256	1
0	16834	4047.977534591042	0
0	16838	4049.948885890824	1
0	16842	4053.329120832449	2
0	16845	4053.771219579271	1
0	16853	4054.16216226449	0
0	16859	4054.405461196343	1
0	16861	4054.900333291917	2
0	16862	4056.038028472835	1
0	16868	4056.138877051145	2
0	16871	4058.106629814834	1
0	16876	4058.122734005901	0
0	16882	4058.179477814623	1
0	16885	4060.350445061589	0
0	16893	4062.663940771204	1
0	16896	4065.150717052095	0
0	16908	4067.474154528357	1
0	16910	4068.815047584847	0
0	16949	4074.857937071685	1
0	16950	4074.870213105401	0
0	16973	4083.332025739972	1
0	16976	4084.144854116952	0
0	17000	4091.182538167323	1
0	17002	4091.791780661479	2
0	17004	4092.589733088629	3
0	17005	4093.061892592535	2
0	17010	4093.151034953862	1
0	17016	4093.154039406466	2
0	17017	4093.277509301546	1
0	17024	4093.6852770254	2
0	17026	4094.122660097387	3
0	17027	4094.457781278582	2
0	17035	4096.052603756089	3
0	17036	4096.97218533349	2
0	17043	4098.049731378493	1
0	17050	4098.325646421205	0
0	17070	4100.582911659472	1
0	17073	4102.344723541543	0
0	17083	4103.263143195634	1
0	17085	4103.8152768793	2
0	17092	4105.064606172011	3
0	17094	4105.250160400155	4
0	17096	4105.580749309702	5
0	17097	4105.850523692943	4
0	17102	4106.460231525391	3
0	17110	4107.497130554186	4
0	17112	4108.719596379734	3
0	17118	4108.794074171778	4
0	17120	4108.958628913833	3
0	17125	4109.07625127347	2
0	17131	4109.450050248915	3
0	17136	4112.562465171657	2
0	17143	4114.186628577282	1
0	17151	4115.751406834535	0
0	17157	4116.113398953535	1
0	17160	4116.425498277255	2
0	17161	4116.436307987103	1
0	17167	4118.106950978843	0
0	17173	4118.27257513039	1
0	17174	4119.025331411943	0
0	17183	4121.3627978008	1
0	17187	4122.875992350198	0
0	17204	4124.074684707501	1
0	17208	4124.65298716716	0
0	17227	4126.889006827871	1
0	17229	4127.579913372111	0
0	17235	4127.800321746019	1
0	17236	4127.904977967991	0
0	17243	4128.200352127046	1
0	17244	4128.499109434209	0
0	17275	4132.894868213253	1
0	17278	4136.498090782168	0
0	17299	4138.167983321157	1
0	17303	4141.602574113121	0
0	17329	4149.183637252338	1
0	17330	4149.309769280803	0
0	17344	4150.088191592911	1
0	17345	4150.751697964725	0
0	17388	4166.616836406744	1
0	17389	4166.788770406424	0
0	17407	4167.896776742773	1
0	17409	4170.486748763645	2
0	17410	4171.712485381968	1
0	17415	4172.028721020391	0
0	17435	4175.537477632666	1
0	17436	4176.674454304252	0
0	17442	4176.941623814139	1
0	17443	4177.006666918267	0
0	17450	4177.587027455726	1
0	17451	4177.974498122987	0
0	17507	4189.186943588521	1
0	17510	4189.364897127076	2
0	17512	4189.422043776718	3
0	17513	4189.451186986631	2
0	17519	4189.823869460206	3
0	17521	4189.841181024291	4
0	17524	4190.584314041089	5
0	17525	4190.903539417555	4
0	17530	4191.422672818371	3
0	17536	4192.36057334188	2
0	17542	4192.65615164456	3
0	17544	4193.368317236118	2
0	17551	4193.4867089432	3
0	17553	4195.994010820586	2
0	17559	4196.49834509575	3
0	17561	4196.746024960866	4
0	17562	4197.491634094095	3
0	17568	4199.419120870211	4
0	17572	4201.509849719799	3
0	17577	4201.518523037195	2
0	17585	4202.841283741431	1
0	17590	4203.417298621998	0
0	17597	4205.081365364596	1
0	17601	4205.702274451415	2
0	17604	4207.304134251882	1
0	17609	4208.038972122336	0
0	17653	4216.138554371559	1
0	17654	4216.461878395501	0
0	17708	4230.241506631668	1
0	17710	4230.393234067581	2
0	17711	4230.904076213586	1
0	17717	4232.350168432381	0
0	17731	4233.314336438238	1
0	17733	4233.443971351713	2
0	17735	4233.907291041653	1
0	17741	4234.42263313662	0
0	17747	4234.675621332219	1
0	17749	4234.931478432688	2
0	17750	4235.226588552913	1
0	17755	4235.877913876555	0
0	17796	4243.694514731087	1
0	17798	4244.434222204473	2
0	17800	4244.575238212848	3
0	17801	4245.943656249567	2
0	17807	4249.754556324078	1
0	17813	4250.162730322343	2
0	17815	4252.030127361403	1
0	17820	4252.54068271481	0
0	17843	4262.305453606268	1
0	17844	4263.493607716555	0
0	17878	4273.403498321006	1
0	17885	4276.911677534498	0
0	17909	4282.059839565074	1
0	17911	4282.093146260128	2
0	17915	4283.342998593043	1
0	17921	4284.46757806646	0
0	18011	4308.593977256468	1
0	18013	4308.695665554159	2
0	18016	4309.075795462174	1
0	18021	4309.525058012269	0
0	18034	4310.374824308906	1
0	18035	4311.059492480871	0
0	18050	4316.167436968768	1
0	18055	4318.451779039104	0
0	18061	4318.573402023054	1
0	18064	4318.973387860174	2
0	18067	4320.169105024525	1
0	18074	4320.404765511536	0
0	18080	4320.758424257764	1
0	18081	4321.703014458986	0
0	18096	4323.92019956061	1
0	18098	4325.342479339062	0
0	18114	4326.510367779752	1
0	18116	4327.462053722039	0
0	18127	4327.85667080364	1
0	18131	4329.253779443622	2
0	18134	4330.622410689108	1
0	18141	4332.310334025298	0
0	18155	4333.996122330726	1
0	18156	4334.523728312769	0
0	18215	4349.200879334448	1
0	18216	4349.45458481959	0
0	18315	4374.635643973886	1
0	18316	4374.678804683733	0
0	18322	4375.387274160882	1
0	18323	4375.423452210371	0
0	18330	4376.62745142126	1
0	18331	4377.532505400799	0
0	18409	4395.210273799568	1
0	18413	4396.239730035357	0
0	18428	4399.707292449741	1
0	18429	4399.720574387132	0
0	18442	4400.333614230479	1
0	18443	4400.735646250858	0
0	18464	4405.938406958179	1
0	18465	4406.456016101242	0
0	18480	4408.574327591699	1
0	18486	4409.560133503563	2
0	18487	4409.611978852147	1
0	18492	4409.89109617239	0
0	18504	4411.15891803755	1
0	18506	4411.763547725662	0
0	18515	4413.63549757027	1
0	18517	4415.693289309167	2
0	18518	4415.947435182487	1
0	18526	4416.944949754321	2
0	18527	4417.506320484528	1
0	18534	4417.879471001956	0
0	18579	4431.775122259001	1
0	18580	4432.311752990133	0
0	18587	4433.802014848689	1
0	18591	4436.184852019748	0
0	18602	4437.588328780171	1
0	18604	4438.194991476992	2
0	18605	4438.509013923209	1
0	18611	4439.140082556459	2
0	18613	4439.448553446041	1
0	18619	4440.684015955537	0
0	18677	4464.404882401472	1
0	18678	4464.802623605699	0
0	18697	4472.288242070452	1
0	18703	4474.169202963248	2
0	18704	4474.634626270159	1
0	18710	4475.976632829884	2
0	18712	4476.817868462351	3
0	18714	4479.557976149225	4
0	18719	4480.569678115936	3
0	18724	4480.946804051652	2
0	18731	4481.796355405399	1
0	18738	4482.853275421971	0
0	18762	4485.381768864092	1
0	18765	4487.391401767664	0
0	18781	4488.475240360556	1
0	18783	4488.642736800816	2
0	18786	4489.92908140537	1
0	18791	4490.789545246684	0
0	18817	4494.336411399901	1
0	18821	4495.506812085959	0
0	18827	4495.68785550596	1
0	18828	4495.873783867713	0
0	18869	4502.357492789927	1
0	18871	4502.477361804846	2
0	18872	4504.751529439995	1
0	18878	4505.002197799891	2
0	18879	4505.09302097845	1
0	18885	4505.706665707831	2
0	18887	4506.408961801081	3
0	18888	4506.46494990102	2
0	18897	4509.240570610034	3
0	18898	4509.74591043714	2
0	18904	4509.920591993548	3
0	18906	4510.800840461012	4
0	18908	4511.510715378933	3
0	18913	4511.829040273702	2
0	18918	4512.018608836113	1
0	18923	4512.887350778682	0
0	18950	4518.612383995747	1
0	18952	4519.356485714975	2
0	18956	4520.085725156483	3
0	18957	4521.861960980442	2
0	18962	4522.907040066649	1
0	18967	4523.030851051333	0
0	18991	4525.973029139323	1
0	18992	4525.989655490301	0
0	19016	4529.699261617102	1
0	19017	4530.530578325979	0
0	19032	4537.926126215129	1
0	19034	4538.068136980004	2
0	19035	4539.109404909461	1
0	19041	4539.723190754638	2
0	19044	4540.583434936688	3
0	19045	4540.781103111101	2
0	19050	4541.192658754274	1
0	19059	4542.842910824881	0
0	19069	4543.703308030002	1
0	19074	4547.495228546059	0
0	19084	4548.694606742398	1
0	19089	4549.531019611866	0
0	19151	4568.190426149382	1
0	19153	4568.429540890111	2
0	19154	4569.258594247826	1
0	19163	4570.715262432866	0
0	19203	4581.159281773104	1
0	19206	4581.237378487957	0
0	19236	4588.933626074879	1
0	19245	4592.971563361392	0
0	19266	4595.966120184452	1
0	19271	4597.735829944006	0
0	19280	4600.156969593338	1
0	19281	4601.002921349298	0
0	19302	4605.753385852405	1
0	19306	4605.956771578969	2
0	19308	4606.529715659447	3
0	19309	4606.603885798467	2
0	19315	4606.708510716662	3
0	19316	4606.849228451715	2
0	19322	4607.433463762005	1
0	19327	4607.785550009408	0
0	19336	4608.376618604764	1
0	19340	4610.469477903197	0
0	19354	4613.40810267934	1
0	19358	4613.758728096935	2
0	19364	4614.91812238683	1
0	19370	4615.924635266597	0
0	19383	4618.008493793641	1
0	19385	4618.155786958795	2
0	19387	4619.218615598067	3
0	19388	4619.677243209847	2
0	19394	4620.975801978347	1
0	19402	4622.604546759935	0
0	19408	4623.338822276519	1
0	19409	4623.765222818143	0
0	19415	4623.843806276687	1
0	19416	4624.418435440925	0
0	19425	4626.131859096193	1
0	19426	4627.024514142939	0
0	19442	4629.916959830065	1
0	19444	4629.922238906224	2
0	19447	4630.388194269969	3
0	19451	4631.511105261869	4
0	19452	4631.76002308679	3
0	19460	4635.339260919962	4
0	19461	4635.365166239781	3
0	19467	4636.238081795868	4
0	19469	4636.707134867417	5
0	19470	4637.854743607344	4
0	19476	4639.055984886976	5
0	19480	4639.418815065101	6
0	19482	4640.691929883891	7
0	19483	4640.738576068743	6
0	19488	4640.913323471951	5
0	19496	4643.721981740779	4
0	19502	4644.854035684044	3
0	19507	4645.376651282332	2
0	19511	4647.026974710049	3
0	19513	4647.058799576454	4
0	19515	4647.375756415238	5
0	19518	4648.309015445985	4
0	19523	4649.552196451561	3
0	19529	4652.990115549751	2
0	19534	4653.500201234888	1
0	19545	4658.977400091237	0
0	19559	4660.801258792533	1
0	19561	4661.657209474459	0
0	19575	4662.810881329389	1
0	19577	4663.652097063192	2
0	19578	4664.231476143781	1
0	19585	4664.919239239338	0
0	19593	4666.249502902099	1
0	19594	4666.318816222409	0
0	19605	4667.420168894989	1
0	19607	4668.101756953292	0
0	19613	4668.290640338126	1
0	19615	4668.724359461047	0
0	19648	4671.155793840174	1
0	19649	4671.99338233102	0
0	19656	4673.217835794036	1
0	19657	4673.659972521503	0
0	19668	4675.013492673961	1
0	19670	4675.626494250143	2
0	19672	4675.972594963292	1
0	19678	4678.132808426026	0
0	19691	4680.939942510226	1
0	19695	4682.92399972318	2
0	19697	4683.191690971799	3
0	19699	4683.475398892027	4
0	19700	4684.085018597549	3
0	19705	4684.949999766098	2
0	19711	4685.392051247489	1
0	19716	4685.582250388197	0
0	19722	4685.748467086584	1
0	19725	4686.618985735962	0
0	19759	4692.536215692022	1
0	19761	4693.302218975107	2
0	19765	4696.247954463563	3
0	19766	4696.410917944718	2
0	19772	4697.712099129291	1
0	19778	4698.116743684588	2
0	19780	4698.887343464879	1
0	19790	4701.549740632807	2
0	19791	4701.680923056797	1
0	19799	4702.717114368187	0
0	19838	4715.088302242716	1
0	19845	4717.637720682761	2
0	19846	4718.539846014785	1
0	19852	4719.685198804601	2
0	19853	4719.844674277527	1
0	19861	4720.946756457406	0
0	19891	4727.914370580117	1
0	19893	4728.009305695533	2
0	19894	4728.482718864152	1
0	19904	4732.067911223168	2
0	19906	4732.88095522263	3
0	19908	4733.038497092939	4
0	19910	4733.570293486793	5
0	19911	4733.658750457548	4
0	19919	4735.362163888748	3
0	19924	4735.726326840095	2
0	19931	4738.784557530191	1
0	19937	4739.203898524821	2
0	19939	4739.7987580041	3
0	19941	4740.918795738037	2
0	19946	4741.110623182153	1
0	19952	4741.566313473706	0
0	19962	4743.823399979895	1
0	19964	4744.466471916025	0
0	20071	4778.117171630378	1
0	20073	4778.79064491118	2
0	20077	4779.787184583673	3
0	20079	4782.559805109066	4
0	20080	4782.796545166787	3
0	20085	4783.825636013238	2
0	20092	4784.407379275085	1
0	20098	4784.419593724966	2
0	20101	4785.21839626831	1
0	20106	4785.73405055989	0
0	20119	4785.962381851523	1
0	20120	4786.445702957542	0
0	20144	4788.41760571347	1
0	20145	4788.677637095986	0
0	20159	4791.23576436343	1
0	20161	4792.310137268478	0
0	20165	4793.22414965445	1
0	20171	4795.0960834591	0
0	20178	4799.257321478651	1
0	20179	4799.267201069573	0
0	20192	4801.564604332601	1
0	20194	4802.103966999476	0
0	20200	4802.417309410926	1
0	20201	4803.982938913729	0
0	20219	4812.441984765517	1
0	20220	4812.780144969	0
0	20276	4836.419021317633	1
0	20278	4836.62057283854	2
0	20282	4837.533357784678	3
0	20283	4837.53796211964	2
0	20291	4838.981342169968	1
0	20297	4839.679771434359	0
0	20308	4840.540043322624	1
0	20310	4840.897668542315	2
0	20312	4841.14289053251	3
0	20313	4841.229142917124	2
0	20318	4841.778150644986	1
0	20323	4844.587474450308	0
0	20330	4846.944384533144	1
0	20332	4846.974120163639	2
0	20333	4847.513156273114	1
0	20338	4848.371546969217	0
0	20344	4853.936005394401	1
0	20348	4854.568899526588	2
0	20353	4857.687404056849	3
0	20360	4859.668839277342	2
0	20366	4860.383606281159	1
0	20375	4860.972231472387	2
0	20376	4861.72381636662	1
0	20384	4861.843294295236	2
0	20385	4862.488493072071	1
0	20390	4863.017663162819	0
0	20396	4864.191863149698	1
0	20397	4864.285182171131	0
0	20414	4867.311551979167	1
0	20418	4867.636235575017	2
0	20422	4869.45007452388	1
0	20428	4869.92371462792	2
0	20429	4870.59594351664	1
0	20434	4870.710502502514	0
0	20446	4872.286014093071	1
0	20448	4872.295909569627	2
0	20449	4872.623131090875	1
0	20456	4873.488942631803	0
0	20463	4873.724399209422	1
0	20464	4873.749562838933	0
0	20470	4873.75940917813	1
0	20473	4874.305131355707	2
0	20475	4874.404154183877	3
0	20477	4875.198140683564	2
0	20486	4879.248017647784	3
0	20488	4879.527831613219	2
0	20494	4881.057172365581	1
0	20500	4881.296524850161	0
0	20521	4889.201010437485	1
0	20522	4889.656432610361	0
0	20528	4889.720996951557	1
0	20529	4890.085852519227	0
0	20535	4890.200950647828	1
0	20537	4890.301634358805	2
0	20541	4894.035733219238	1
0	20547	4894.401958256696	0
0	20553	4894.426915775181	1
0	20557	4894.728104964054	2
0	20558	4894.842485891217	1
0	20563	4895.029148726333	0
0	20578	4898.006634863495	1
0	20579	4898.162395184326	0
0	20599	4901.434067666613	1
0	20600	4901.492192659741	0
0	20632	4905.617808495617	1
0	20633	4906.18577516804	0
0	20656	4920.463736406733	1
0	20657	4920.662147100745	0
0	20663	4920.687057367193	1
0	20665	4921.191533356978	0
0	20686	4925.823773783281	1
0	20688	4926.734567208772	0
0	20757	4947.874754015667	1
0	20761	4948.310089589564	2
0	20764	4948.632936470157	3
0	20765	4949.93470345041	2
0	20771	4952.066670194495	1
0	20780	4952.702300964364	2
0	20781	4953.172527243556	1
0	20787	4955.052463951567	0
0	20793	4955.169183547109	1
0	20795	4955.517927341319	0
0	20814	4957.056712394766	1
0	20816	4957.520875872606	2
0	20818	4957.662814090157	3
0	20819	4957.753671832673	2
0	20827	4958.3130712056	3
0	20828	4959.066857073256	2
0	20833	4959.096991188031	1
0	20839	4960.156777695499	2
0	20840	4961.351817152899	1
0	20847	4963.370921336741	0
0	20860	4963.928265147167	1
0	20861	4964.063418501367	0
0	20888	4975.621015297696	1
0	20889	4975.756602312741	0
0	20903	4978.985361306223	1
0	20904	4979.558102365161	0
0	20921	4980.627367486267	1
0	20922	4981.009508915028	0
0	20955	4991.091799529652	1
0	20956	4991.854329012873	0
0	20962	4991.910530923132	1
0	20963	4992.206691715995	0
0	20970	4993.104146187476	1
0	20972	4994.076549774147	2
0	20973	4994.155128553295	1
0	20978	4994.536977955638	0
0	21118	5044.701367997583	1
0	21119	5044.913650738563	0
0	21140	5046.777495479762	1
0	21141	5047.194127363412	0
0	21165	5050.523210401888	1
0	21166	5051.067691940113	0
0	21197	5057.960366792216	1
0	21200	5058.384343388675	2
0	21202	5058.505215435647	3
0	21204	5058.820991111057	4
0	21205	5058.892383820438	3
0	21212	5059.746836715649	2
0	21218	5059.981206828759	3
0	21222	5061.90187677241	2
0	21227	5061.928795456048	1
0	21232	5062.346786996085	0
0	21238	5062.472365022936	1
0	21240	5062.98277124979	0
0	21246	5063.012133066556	1
0	21247	5063.309916743458	0
0	21254	5066.286462269394	1
0	21256	5067.361196216553	0
0	21305	5078.137101833772	1
0	21309	5079.633399456426	2
0	21311	5079.997157563961	3
0	21312	5081.370881322876	2
0	21318	5081.828847724626	1
0	21323	5082.384610042948	0
0	21330	5082.646719760913	1
0	21331	5082.667168259765	0
0	21349	5084.201511661233	1
0	21352	5085.279017512798	0
0	21394	5096.648131541011	1
0	21396	5097.018749890743	0
0	21421	5104.043576684408	1
0	21426	5106.42850886657	0
0	21443	5108.431355858259	1
0	21444	5109.631337259846	0
0	21474	5113.387946910476	1
0	21476	5114.134136217702	0
0	21514	5117.337144175613	1
0	21516	5117.677881101779	0
0	21586	5137.148388137038	1
0	21589	5137.62189070829	2
0	21591	5138.990451133716	1
0	21596	5140.340938717987	0
0	21602	5140.469931731985	1
0	21604	5141.373712652342	0
0	21619	5142.528937559567	1
0	21620	5142.741443968715	0
0	21645	5148.38474542386	1
0	21647	5148.599373093532	2
0	21650	5150.450459873729	1
0	21657	5150.638238777917	0
0	21729	5171.147414615024	1
0	21730	5172.206172782306	0
0	21777	5187.180483451609	1
0	21780	5187.683588945533	2
0	21781	5187.929069127198	1
0	21786	5188.141658712172	0
0	21813	5194.408096745672	1
0	21815	5195.076734282009	2
0	21816	5195.994553848885	1
0	21821	5196.700259788257	0
0	21884	5214.361257961575	1
0	21886	5215.791609460434	0
0	21909	5220.346531362296	1
0	21910	5220.649647110312	0
0	21916	5220.695243081905	1
0	21917	5220.706119394683	0
0	21996	5239.054911808061	1
0	21999	5239.412783706182	0
0	22019	5242.715907700823	1
0	22022	5243.284025263924	2
0	22023	5243.607283512606	1
0	22028	5244.125853422781	0
0	22058	5250.264637815893	1
0	22060	5251.500240840369	0
0	22081	5259.645405904731	1
0	22082	5260.940163091119	0
0	22088	5261.574237021988	1
0	22089	5261.674160774199	0
0	22118	5272.385654822934	1
0	22127	5276.263522931549	2
0	22128	5276.738106902453	1
0	22133	5276.76170317132	0
0	22187	5289.601903877303	1
0	22189	5293.057053840572	2
0	22191	5293.280183527212	3
0	22195	5295.517597002465	4
0	22196	5297.027818739601	3
0	22201	5297.261311243557	2
0	22208	5297.840167935711	3
0	22212	5298.773950747887	4
0	22214	5299.208097532099	5
0	22215	5300.111894581002	4
0	22224	5301.802714205424	3
0	22230	5302.500855288517	4
0	22233	5304.087238537317	3
0	22238	5304.10906844664	2
0	22245	5305.127101790459	3
0	22248	5305.578152293239	2
0	22258	5307.06098994841	1
0	22263	5308.02195295783	0
0	22275	5309.485466043398	1
0	22280	5311.939829197558	2
0	22282	5312.18912874678	3
0	22283	5312.399693908149	2
0	22290	5314.957393402116	1
0	22296	5314.959692055858	2
0	22299	5316.409647681963	3
0	22300	5316.493460095646	2
0	22306	5317.235060879474	1
0	22312	5317.533775371303	0
0	22331	5323.228921490582	1
0	22333	5324.9921544408	0
0	22382	5335.279751862898	1
0	22384	5336.650924676129	2
0	22386	5336.795628611656	3
0	22389	5337.691994284633	4
0	22391	5337.991070234568	5
0	22393	5338.118126600481	6
0	22394	5338.297551214627	5
0	22402	5339.190839130562	4
0	22412	5340.98732605535	5
0	22413	5341.052749308589	4
0	22418	5341.22677243268	3
0	22425	5342.2603522075	4
0	22427	5343.54144050809	5
0	22428	5344.477299677731	4
0	22433	5344.903449305304	3
0	22438	5346.774624900694	2
0	22448	5348.401983852756	1
0	22453	5348.719356892072	0
0	22457	5348.881807613037	1
0	22464	5351.124246527774	2
0	22467	5352.131424305155	3
0	22468	5352.719690037956	2
0	22473	5353.02541382295	1
0	22479	5353.982065224738	2
0	22480	5354.17218267425	1
0	22485	5355.041808606952	0
0	22502	5359.182326880038	1
0	22505	5359.532981113809	0
0	22532	5362.795842640248	1
0	22533	5362.808926701529	0
0	22578	5385.001280262864	1
0	22580	5385.948698104081	0
0	22608	5390.2526922106	1
0	22612	5394.106557652125	0
0	22668	5413.886911638252	1
0	22669	5416.190160625273	0
0	22675	5416.268249393473	1
0	22677	5416.292414881656	2
0	22679	5417.137281723409	3
0	22681	5417.675407149258	4
0	22682	5418.397453864614	3
0	22687	5418.569747732474	2
0	22693	5419.44535101631	1
0	22698	5420.693673432987	0
0	22715	5423.680071175511	1
0	22718	5424.052002573664	2
0	22719	5424.245729743609	1
0	22726	5425.000359219934	0
0	22748	5438.15046724408	1
0	22749	5438.644931096257	0
0	22763	5440.04385442214	1
0	22764	5440.273395565154	0
0	22771	5441.635896239959	1
0	22773	5441.640167083091	2
0	22775	5441.918737761021	1
0	22780	5443.520619283951	0
0	22823	5462.383903551386	1
0	22824	5462.628625098808	0
0	22844	5466.163622789433	1
0	22847	5466.397660169081	2
0	22848	5467.53151909813	1
0	22853	5468.408895032915	0
0	22867	5469.665808566084	1
0	22871	5470.891836768135	2
0	22872	5470.899704073926	1
0	22878	5471.66551256396	0
0	22932	5486.222557924149	1
0	22934	5487.154421948037	2
0	22935	5487.890929708094	1
0	22941	5487.89422881291	2
0	22943	5489.712818797278	1
0	22951	5490.305650732593	0
0	23004	5519.221389990989	1
0	23005	5519.287340894054	0
0	23028	5522.956581507106	1
0	23029	5523.549884147972	0
0	23043	5525.956294005336	1
0	23045	5527.007366982511	0
0	23059	5531.303490410047	1
0	23060	5531.372989819607	0
0	23082	5535.195414076603	1
0	23087	5537.579231350634	0
0	23140	5550.457090682521	1
0	23141	5552.109913193303	0
0	23172	5560.083118207737	1
0	23177	5561.913535450422	2
0	23178	5562.607026316553	1
0	23183	5564.069159218991	0
0	23194	5564.347554321974	1
0	23197	5565.419773113749	0
0	23261	5576.005903725261	1
0	23266	5577.580722040353	2
0	23267	5577.810078181389	1
0	23272	5577.916433652201	0
0	23294	5579.575393114153	1
0	23296	5580.609042196353	2
0	23298	5581.36481184643	3
0	23300	5581.717161412061	2
0	23305	5581.928361492229	1
0	23310	5582.224873465535	0
0	23318	5583.507975854164	1
0	23320	5583.780527384222	2
0	23321	5584.961988880173	1
0	23326	5585.010018786831	0
0	23341	5589.827029342168	1
0	23343	5590.977178914446	0
0	23351	5591.416994511855	1
0	23352	5591.626326845402	0
0	23358	5591.794629194429	1
0	23359	5592.267272437746	0
0	23367	5594.410812449811	1
0	23368	5594.548947122122	0
0	23374	5594.626293725996	1
0	23375	5595.653487977224	0
0	23395	5599.538826815365	1
0	23398	5603.089446942574	0
0	23409	5603.557626854207	1
0	23410	5604.183293726965	0
0	23443	5614.220423559221	1
0	23446	5615.626180252139	0
0	23470	5618.829314350233	1
0	23471	5619.084843406814	0
0	23480	5619.834054565677	1
0	23481	5620.944545926101	0
0	23523	5631.526615801859	1
0	23524	5632.604259724971	0
0	23547	5634.135545687028	1
0	23552	5637.091706396343	0
0	23577	5640.886871616878	1
0	23579	5640.988070844873	2
0	23582	5641.102977326959	1
0	23588	5641.51781986007	0
0	23597	5643.41703088501	1
0	23603	5645.910489699135	2
0	23606	5648.140774675066	3
0	23611	5648.973876589328	2
0	23617	5650.159462870958	1
0	23623	5651.208654234445	0
0	23645	5657.731155472513	1
0	23649	5658.921350235198	2
0	23650	5660.131142755518	1
0	23655	5660.886967912519	0
0	23686	5668.519121478187	1
0	23687	5670.073592810788	0
0	23693	5670.477256822781	1
0	23694	5670.685469524241	0
0	23702	5673.616988884239	1
0	23704	5674.858133253769	2
0	23706	5674.895361920563	3
0	23707	5676.223128197367	2
0	23712	5676.775310123879	1
0	23718	5677.917395372175	0
0	23738	5685.526274560415	1
0	23742	5689.212817715991	2
0	23743	5690.84217749122	1
0	23753	5693.478690559958	0
0	23780	5700.305113451239	1
0	23781	5701.314993549668	0
0	23795	5703.998278939368	1
0	23796	5704.274630918885	0
0	23819	5707.412530323793	1
0	23823	5708.567499385173	0
0	23861	5717.586121815235	1
0	23863	5717.983684972195	2
0	23864	5718.343514137201	1
0	23870	5718.541585880102	0
0	23877	5719.011654212255	1
0	23878	5719.081452330603	0
0	23884	5719.372411029652	1
0	23886	5721.33664089395	0
0	23893	5721.754180409635	1
0	23895	5721.826394162603	2
0	23897	5722.23220351929	3
0	23899	5723.279367118189	2
0	23905	5726.626682765605	1
0	23915	5728.817948641229	0
0	23942	5733.961932808356	1
0	23944	5735.051989397678	0
0	23963	5737.360641566417	1
0	23966	5738.417595896078	2
0	23967	5738.99699633868	1
0	23972	5739.175769305434	0
0	23987	5740.052544865342	1
0	23989	5740.765190410586	2
0	23992	5741.163337177239	3
0	23993	5741.380187311716	2
0	24001	5743.156236358222	3
0	24002	5744.742230790092	2
0	24009	5747.071120220804	3
0	24011	5747.124060012665	4
0	24012	5747.281676221029	3
0	24018	5748.893456841891	2
0	24025	5749.461041243314	1
0	24031	5749.730654016409	0
0	24044	5753.424998887612	1
0	24046	5753.697020918087	0
0	24080	5763.690725541639	1
0	24081	5764.644509102572	0
0	24105	5770.989961277221	1
0	24106	5771.759160099735	0
0	24127	5777.063395262857	1
0	24128	5777.711996561195	0
0	24144	5780.193098817088	1
0	24145	5780.439879217317	0
0	24152	5781.059477366668	1
0	24155	5782.861598161032	0
0	24167	5783.352643032043	1
0	24168	5783.371537161862	0
0	24181	5784.332222110324	1
0	24183	5785.564568744567	2
0	24185	5786.117021587243	1
0	24191	5786.482843002392	0
0	24239	5795.79905529178	1
0	24240	5795.810386320591	0
0	24271	5805.324925976921	1
0	24274	5807.540602050849	0
0	24372	5834.5130289353	1
0	24373	5835.382308352911	0
0	24438	5851.632882733749	1
0	24439	5851.867722485864	0
0	24507	5874.013292593486	1
0	24509	5874.502209863373	0
0	24516	5874.805614889543	1
0	24519	5875.996866963844	0
0	24531	5878.592870376153	1
0	24532	5878.802523560501	0
0	24546	5882.227247696829	1
0	24548	5882.838485726757	2
0	24549	5883.572831094902	1
0	24556	5886.460202304082	0
0	24577	5888.722514716439	1
0	24581	5889.032167827326	2
0	24582	5889.21784192278	1
0	24587	5889.390319327118	0
0	24626	5899.523112759203	1
0	24627	5900.541090101032	0
0	24658	5912.765547297864	1
0	24663	5915.415296926078	0
0	24669	5915.500295155516	1
0	24672	5915.746270567807	0
0	24696	5918.90303884477	1
0	24698	5921.299054999347	2
0	24700	5921.643928133901	3
0	24706	5923.779888368483	4
0	24707	5923.863282801628	3
0	24713	5924.206810770414	2
0	24718	5924.765699559331	1
0	24724	5925.238197947584	2
0	24725	5925.469006542128	1
0	24731	5926.213548177674	0
0	24739	5927.757327357831	1
0	24741	5928.627257483216	2
0	24742	5929.771807877217	1
0	24752	5931.761892901776	2
0	24753	5932.272735411817	1
0	24761	5934.173500554876	2
0	24764	5934.352475775884	3
0	24766	5934.726540545822	4
0	24768	5934.981717202463	5
0	24770	5935.410564808545	6
0	24771	5935.828061345531	5
0	24776	5936.281213839066	4
0	24781	5936.592539999931	3
0	24787	5936.753556565048	4
0	24788	5936.824601663724	3
0	24794	5936.827232114419	4
0	24797	5937.007974191038	5
0	24799	5938.358551518639	4
0	24807	5939.816930398751	3
0	24813	5940.824899177942	2
0	24818	5941.303379569869	1
0	24823	5941.388959747547	0
0	24832	5943.001583496297	1
0	24833	5943.126961519247	0
0	24841	5944.00968362896	1
0	24842	5944.433407630525	0
0	24908	5958.414024606534	1
0	24913	5960.257704248072	2
0	24915	5961.614437690075	1
0	24921	5964.612202978439	0
0	24947	5966.804483401365	1
0	24950	5967.560366398599	2
0	24952	5968.247281550064	3
0	24953	5970.809113627705	2
0	24958	5970.831872187058	1
0	24965	5972.678778851311	0
0	25019	5996.808567585579	1
0	25022	5997.937935402055	0
0	25029	5998.81731853476	1
0	25034	6000.696255749264	2
0	25035	6001.825055651146	1
0	25042	6002.543879778513	2
0	25044	6003.251712606696	3
0	25045	6004.005482199784	2
0	25052	6005.915021259147	3
0	25053	6006.780224490749	2
0	25062	6007.296179211182	3
0	25063	6008.101445372537	2
0	25070	6009.563854510806	3
0	25071	6010.184780257443	2
0	25076	6010.713750832074	1
0	25083	6012.023209891536	0
0	25089	6012.252869409065	1
0	25094	6013.718998866758	0
0	25106	6014.483393297102	1
0	25109	6015.14351231735	0
0	25130	6018.787309853248	1
0	25132	6018.983612785979	2
0	25133	6021.025905719326	1
0	25139	6022.441590612709	0
0	25158	6025.292603728634	1
0	25159	6025.747583292269	0
0	25245	6048.152373214171	1
0	25246	6050.310280173559	0
0	25261	6052.075543027476	1
0	25262	6052.780333796447	0
0	25269	6053.389073028895	1
0	25270	6053.55447933638	0
0	25348	6070.629589457958	1
0	25352	6070.753795943671	2
0	25355	6071.645093018124	1
0	25361	6072.096088197772	0
0	25369	6072.846110252292	1
0	25376	6073.904925810406	0
0	25393	6075.492612974241	1
0	25394	6075.756300046857	0
0	25432	6079.421700877194	1
0	25433	6079.442513046079	0
0	25538	6109.703445615938	1
0	25540	6110.525422285881	2
0	25542	6110.78921988194	3
0	25545	6111.739198202267	2
0	25551	6112.41059835193	1
0	25557	6112.745277623046	2
0	25559	6113.163247165126	3
0	25562	6113.921114621782	4
0	25563	6114.506632834655	3
0	25568	6114.567760494982	2
0	25573	6115.097150382376	1
0	25578	6115.132677282967	0
0	25617	6124.033941969079	1
0	25620	6124.688076813738	2
0	25621	6125.306339291389	1
0	25627	6126.343846382195	0
0	25650	6130.511943494844	1
0	25651	6130.797630116583	0
0	25684	6137.385920948601	1
0	25685	6137.445638195066	0
0	25698	6141.430262388679	1
0	25699	6143.615820294972	0
[...]
5	120735	28596.026079781283	0.649773670224
5	120740	28596.716998384871	0.870855432377
5	120759	28605.959025808376	1.005723054089
5	120764	28606.148428705392	0.24657317435
5	120783	28610.498111130303	0.898447277792
5	120789	28611.088460797943	0.683536643619
5	120808	28617.038967762987	2.02441860732
5	120812	28618.082572180842	2.511843994903
5	120827	28619.905670789589	0.076088860555
5	120835	28621.598085667715	0.672038653338
5	120880	28632.462194233554	3.032386673161
5	120887	28632.734274059897	3.094378448624
5	120893	28633.534340125568	0.920158175872
5	120914	28638.097437263906	3.389618875014
5	120919	28638.386120875578	3.49725343397
5	120924	28639.188477508673	1.168128921688
5	120945	28641.828450722551	1.008480740383
5	120950	28642.121952694122	0.523649188984
5	120966	28648.74263285697	2.228447942797
5	120973	28650.813360840568	4.169194561709
5	120981	28652.247540477479	3.912630347308
5	120986	28652.750515177195	1.836558759953
5	120995	28654.777803318183	1.463675671587
5	121002	28655.400744442336	0.39351081829
5	121032	28661.979516745459	4.39321353285
5	121037	28662.285096655463	0.755630581087
5	121043	28663.884002913586	2.139956049091
5	121072	28668.450701702609	1.656996784092
5	121105	28676.989853862171	6.753292081976
5	121110	28677.057179776858	6.180278679992
5	121119	28677.905369227834	5.909946704156
5	121124	28678.212227066874	4.710366880525
5	121130	28678.859445347081	2.053127665639
5	121146	28680.129345052119	2.819395076618
5	121152	28680.926393872943	1.931821661447
5	121160	28684.987796171251	5.460123385409
5	121165	28685.207100949274	5.490590406925
5	121183	28689.408982449328	2.622839360525
5	121227	28699.499546369349	2.455735683264
5	121233	28701.130579338135	3.997186416454
5	121238	28701.616570305656	2.768018097562
5	121243	28701.87027152163	2.763204864424
5	121265	28706.592523455637	2.8552115543
5	121270	28706.882481313278	2.693861932548
5	121290	28714.804163528879	1.329046204205
5	121294	28715.938245620303	2.007758699385
5	121303	28718.787354430055	0.869599447022
5	121321	28723.885165731564	1.136159643754
5	121328	28724.46101544792	0.798724377227
5	121342	28727.116129746391	0.260845577269
5	121361	28731.133169435853	0.90328146876
5	121370	28733.023712309824	2.72973240171
5	121374	28734.042171135564	1.607868168689
5	121399	28743.377636143104	2.790733851797
5	121404	28744.034442907418	2.343861172327
5	121410	28745.553302079555	2.210246705033
5	121450	28750.997839490276	2.556108713477
5	121460	28760.990092867705	3.551476607269
5	121467	28762.303303831112	0.019604403212
5	121477	28764.098660969549	1.587840139673
5	121485	28767.614284245326	0.788544626039
5	121501	28771.752789804447	0.830509324867
5	121539	28783.949498313703	3.745252545583
5	121548	28785.472370446326	2.35297728766
5	121555	28786.563449369725	2.313753796766
5	121560	28786.585084592696	0.256088613414
5	121595	28794.278510519355	1.120254359838
5	121603	28795.667192423674	0.357288984636
5	121614	28796.928318224148	0.836784956279
5	121623	28800.040423442454	3.562955597723
5	121645	28808.966725267301	4.355285893554
5	121652	28809.421659833607	0.57705823135
5	121656	28809.856423072995	0.827013105746
5	121691	28815.193065479224	0.369283869656
5	121730	28827.9885003081	7.790732821747
5	121740	28831.938944094018	9.904165255776
5	121745	28831.944353764915	9.204839636652
5	121756	28836.018573786817	6.130219767238
5	121761	28836.085834510338	2.333966406547
5	121773	28837.34444075917	1.45998677325
5	121779	28837.880810043897	1.070427705266
5	121784	28838.463668865281	1.183817316416
5	121806	28841.388063067225	1.545728822385
5	121856	28850.571071532336	2.969362135157
5	121863	28850.816346260317	0.884920336714
5	121868	28850.960428331547	0.915774821654
5	121900	28856.083543072266	2.298666587454
5	121912	28860.936609041813	3.078304763837
5	121916	28861.908006438557	3.441752603643
5	121924	28862.377187940113	0.413522425006
5	121942	28872.963518493876	1.115191460565
5	121954	28874.943837858125	1.156206190555
5	121959	28874.959688045621	0.463586830964
5	121966	28876.868119068829	1.973410800749
5	121974	28880.256384175259	3.800251331102
5	121978	28880.364318617155	1.874355469077
5	121987	28881.212915683591	0.170927081266
5	122005	28889.863927897096	5.892602266466
5	122014	28890.888157693651	5.35187744412
5	122021	28891.236021726584	3.183716005672
5	122033	28892.720482150804	4.471433453871
5	122039	28893.359060434156	3.47868679681
5	122044	28893.374626875952	2.357856626553
5	122049	28893.693874543147	2.268297318326
5	122077	28908.753618860889	1.313586602248
5	122082	28909.732896795272	1.349109719412
5	122089	28910.096376579643	0.220953478407
5	122098	28914.93119163849	1.168411393536
5	122123	28922.806834303898	1.291029954627
5	122131	28924.764328405407	2.636479940976
5	122136	28926.036101424023	1.477857904124
5	122143	28926.581086656773	0.096873400279
5	122168	28936.091801112301	1.957107382755
5	122183	28940.288677516332	2.115763275011
5	122189	28941.120217458844	2.026406869344
5	122193	28941.834751144005	1.707893668738
5	122238	28954.093292129564	5.564567659894
5	122245	28958.115862306691	9.223033636654
5	122250	28958.963750992206	9.016271519039
5	122257	28961.093598959382	10.421177200739
5	122287	28964.942072378582	0.063127618612
5	122302	28969.569883546117	0.238600285444
5	122318	28976.558167002086	2.490216325041
5	122324	28976.664888269743	1.776571862593
5	122329	28977.966689357983	1.663205253053
5	122349	28986.020847185839	6.906666773847
5	122354	28986.106713534077	3.933419795461
5	122368	28993.131454828594	1.445844971726
5	122389	29011.048519432794	0.062110054798
5	122407	29015.98803755663	1.225801858634
5	122422	29019.836202310936	0.573515520701
5	122431	29023.342441154065	1.534565126605
5	122441	29025.175350580743	1.283686888034
5	122450	29026.654254541007	1.892268469575
5	122476	29032.607398537028	4.038934160802
5	122483	29034.317384580871	3.892535150934
5	122492	29034.775104234744	3.813852817571
5	122497	29035.384703392073	4.323182385834
5	122502	29035.432858101303	4.076240230807
5	122507	29036.652819547254	5.052090577731
5	122517	29041.346460754646	9.364516386251
5	122524	29043.450139774477	10.678247660653
5	122531	29045.441613960642	11.065469757039
5	122538	29046.546148397609	12.123079951362
5	122543	29046.860272603461	8.443696459695
5	122548	29047.044336761692	6.596532074631
5	122553	29050.51712389755	8.791106292935
5	122561	29052.017050348115	5.68252973311
5	122585	29055.701048790516	3.247912762942
5	122597	29057.393628194264	2.11935163353
5	122603	29059.211879174986	2.064351012434
5	122624	29063.589735101378	3.958228600364
5	122632	29064.908581253654	1.789805378851
5	122641	29068.025490464845	3.472306468526
5	122648	29068.57393730618	3.205392642997
5	122664	29071.746108961412	0.132816169332
5	122674	29072.84299384739	0.852891938661
5	122700	29078.543694148306	1.546143539423
5	122720	29081.52238228123	1.88977889598
5	122732	29084.131981970118	3.683525208578
5	122740	29085.897555224947	4.190531275551
5	122745	29086.191400512474	2.635325262849
5	122758	29088.363862079287	1.818032076486
5	122766	29097.336018132347	2.36305851028
5	122773	29101.015571534207	0.04130835731
5	122783	29102.721898920931	1.080830906939
5	122790	29103.554799566077	0.065687068816
5	122802	29106.885090483109	0.613772658622
5	122816	29110.462780052171	3.493207221002
5	122820	29110.596654491985	2.844784086369
5	122828	29111.836383155057	0.808068369789
5	122844	29114.960331817019	1.458480565332
5	122853	29117.721278266993	1.079135980943
5	122866	29122.500444913941	3.34350029569
5	122876	29123.432661887375	2.630022412126
5	122881	29124.95675138899	2.301325372219
5	122894	29126.384779521632	0.054944359308
5	122901	29127.00188547693	0.063237232568
5	122922	29134.104014159936	6.737366457036
5	122927	29134.132856043795	5.450883023475
5	122931	29134.240148144748	2.441287671594
5	122946	29139.627739359187	3.440509058812
5	122953	29140.672265982911	2.433885961994
5	122957	29140.816858005365	0.188454384081
5	122968	29142.111913817571	0.721140179036
5	122977	29143.644638651757	1.971167342426
5	122988	29146.245151632205	3.204648863643
5	122993	29146.3727108305	1.836474600978
5	122998	29146.449032312145	0.498530673679
5	123002	29146.778852502177	0.629565678558
5	123010	29148.417431455291	0.322192985256
5	123030	29158.477050975394	1.541693113558
5	123054	29162.938771735601	0.026075042732
5	123070	29167.006494742558	3.444541101487
5	123094	29169.112709077449	0.700851565972
5	123107	29172.141610240086	0.352877395304
5	123114	29176.657097587833	0.39726239496
5	123124	29178.534628945179	0.537485631487
5	123134	29180.074954176191	0.925500090787
5	123141	29182.759860058802	0.944877527719
5	123155	29186.719686583447	1.343268005355
5	123160	29186.777877804313	1.068430408334
5	123167	29191.470260327408	0.338436515182
5	123176	29194.275703138096	0.223836495578
5	123190	29196.95391596547	1.13892100153
5	123204	29202.149042216283	4.74755916096
5	123210	29203.385328973337	2.501106093608
5	123215	29204.939394019181	2.951604783673
5	123227	29210.635333195515	0.761904740923
5	123235	29212.212820083244	2.033992087405
5	123242	29212.880471060144	1.239001436057
5	123259	29216.59153650395	3.064394495341
5	123266	29216.901130611025	2.875506421053
5	123270	29217.417564335411	0.760936964815
5	123279	29218.935166083428	0.218832140719
5	123290	29223.364996936517	0.638571627485
5	123313	29228.226458931511	1.125936689396
5	123321	29228.832702824089	1.491052670038
5	123325	29228.884202463041	0.614605013433
5	123339	29234.598527975087	3.826964871685
5	123351	29236.403607050997	1.418736359145
5	123363	29237.670154319125	1.136360029491
5	123367	29238.127207578461	1.565498657857
5	123386	29240.710141881943	1.147940957538
5	123393	29241.165021982501	1.553111624595
5	123414	29246.055622978088	3.985915367637
5	123420	29246.587752448503	1.149632284672
5	123431	29247.427040186908	1.409458661873
5	123439	29248.799626595605	1.643689129111
5	123445	29249.269473140286	1.818923798615
5	123508	29260.749659320579	5.55098586558
5	123534	29265.956242693911	2.211807111302
5	123556	29273.265772551465	2.084145610199
5	123560	29274.346120501435	2.475234451271
5	123568	29275.877030668144	0.00782286453
5	123587	29283.675100136023	2.84603307955
5	123595	29284.80841287565	3.554083872061
5	123606	29287.08977135106	4.486741604407
5	123613	29288.015273205621	3.383941939469
5	123636	29298.90625221535	8.339792262867
5	123644	29301.694485744789	10.474953884962
5	123649	29302.405803799587	0.839311929112
5	123673	29307.708977093263	1.28912175234
5	123693	29310.426004381519	0.878138507174
5	123726	29325.646035528498	0.239808975944
5	123753	29334.103814299473	1.700122289195
5	123759	29334.580406638004	1.933514600949
5	123775	29337.735124706125	1.901122926151
5	123786	29339.53367442779	2.942502322414
5	123792	29341.023851439673	2.640373616087
5	123809	29344.661748163344	3.617862050981
5	123814	29345.274714085652	3.765265713
5	123833	29347.907305270607	1.914937861628
5	123842	29351.489376811638	4.6691044458
5	123849	29353.568588253013	6.367854120834
5	123853	29353.579701643578	2.672573754987
5	123862	29355.248009011123	0.795180683799
5	123869	29362.031213347416	0.394454774907
5	123886	29367.882574483597	1.525748722951
5	123893	29370.003292428613	0.096774080335
5	123915	29374.358027582338	2.617846219162
5	123922	29376.180997884774	3.297494174106
5	123927	29376.815844492415	3.824112533804
5	123943	29383.071740108929	0.809606222691
5	123967	29389.2895327545	2.79087762578
5	123971	29389.956765581199	3.133690779293
5	123981	29391.778549120771	0.105499812522
5	124004	29400.452057156426	6.006248209421
5	124009	29400.740237472486	5.821959138483
5	124014	29401.695191385161	5.601129660076
5	124027	29403.924789939615	0.274763423834
5	124034	29404.970424542746	0.232560874148
5	124053	29409.628748103076	2.706339230593
5	124060	29410.03615573809	0.381670605698
5	124075	29418.289301306368	3.661079193609
5	124081	29421.795731056139	5.126343468872
5	124093	29424.503873001715	0.92214445839
5	124103	29426.24352519017	1.364081710796
5	124110	29429.855195565976	4.338049204402
5	124114	29429.995540046787	3.307332155878
5	124145	29442.4196065031	3.824746560264
5	124166	29454.728004419057	0.32350985992
5	124173	29461.194873616483	1.987605018979
5	124203	29466.879218078478	2.38153440394
5	124213	29467.783842862978	1.693482716197
5	124220	29469.026695725551	1.33245168769
5	124225	29469.089316867561	0.898664745837
5	124247	29471.10410366769	1.145991713841
5	124260	29474.051909063889	3.343497636808
5	124265	29474.172847287833	3.023125218022
5	124276	29476.8058390298	4.441363087499
5	124281	29477.018632305354	0.720325037407
5	124301	29479.067441620452	1.772260660806
5	124319	29482.389734064101	2.374481129193
5	124336	29486.618905569121	3.72428277099
5	124358	29490.400634098778	2.495371817685
5	124382	29499.146784635779	6.249096793674
5	124391	29502.714249322108	8.549075422044
5	124407	29505.829243317766	11.385422917339
5	124414	29506.970223444667	10.110076850792
5	124421	29507.833639879111	6.211489410158
5	124427	29508.427116410215	6.766350784448
5	124443	29512.119030680869	8.881480418564
5	124448	29513.115186588983	7.797796383451
5	124453	29514.416424427557	7.837300857617
5	124458	29514.476747830528	5.712958620258
5	124466	29515.184233665394	5.90341932834
5	124473	29515.973655295089	5.945543731388
5	124481	29518.495896338445	7.163768025909
5	124486	29518.617840349434	3.362305047702
5	124515	29524.613697489095	1.732411337235
5	124522	29525.972790328761	1.868672273594
5	124534	29529.24776756272	3.979415401293
5	124539	29530.682798076964	4.64497703993
5	124546	29532.423638913608	4.925244073179
5	124555	29537.854377047808	8.941922210038
5	124560	29538.437069887392	6.070103071937
5	124567	29539.810910013837	3.543651606945
5	124574	29541.564697866858	2.167627345241
5	124616	29549.028825408731	2.713532631749
5	124621	29549.257625899152	2.690599532689
5	124627	29549.879548006472	1.508296145257
5	124652	29553.712699873058	0.734032317284
5	124675	29559.965577797584	0.237162713907
5	124685	29563.145170660658	0.549249817499
5	124697	29565.756865284476	2.446831120399
5	124707	29567.00032651982	1.461979250237
5	124712	29567.134034425075	1.207630459099
5	124718	29568.721222774712	2.703537632699
5	124727	29571.019304902628	0.427042922138
5	124735	29573.178056307666	0.305598126407
5	124748	29578.455575653239	1.664260154392
5	124762	29579.718348345776	1.017850475706
5	124767	29580.031804474873	1.150389112136
5	124782	29582.516056452529	1.215486595022
5	124792	29587.365185668318	4.185090462058
5	124808	29589.159456405207	1.552270223122
5	124813	29591.252638170623	2.406632459409
5	124833	29594.102570974743	2.692079019439
5	124837	29594.624804304869	0.996445648233
5	124853	29595.777802846961	0.272955070646
5	124864	29597.316266230757	0.963801057189
5	124872	29598.600721397045	1.959331795774
5	124880	29600.620621326814	2.91335906987
5	124892	29603.099575171559	3.922424824119
5	124898	29604.030536161995	2.638114132964
5	124918	29610.020421979729	2.923187100733
5	124928	29612.233658974021	4.089445335755
5	124937	29613.366697558938	5.066076784449
5	124942	29613.447442212948	2.63690243798
5	124971	29619.40176542962	1.553473780639
5	124989	29621.987062667908	1.162606524006
5	125007	29624.417919771656	0.593194893567
5	125020	29625.395129959894	0.935732972843
5	125027	29626.032395870473	0.574890496897
5	125047	29630.198284475225	0.985964338184
5	125065	29636.835777978852	1.348724594569
5	125090	29646.06895410302	6.74633772746
5	125103	29651.028766902961	9.635544808797
5	125111	29652.341658407389	4.415906438712
5	125116	29653.070149809292	3.507153981058
5	125171	29660.558853738293	3.479494251165
5	125175	29661.129195721657	1.337850519101
5	125185	29666.299785031302	1.179264831991
5	125199	29669.371753190985	2.174195993123
5	125227	29674.909683771124	2.339715841771
5	125234	29676.771764045116	2.658437991451
5	125247	29680.208640086452	5.794230117962
5	125255	29682.953070428208	4.742276961505
5	125260	29683.535368810231	3.893874347521
5	125274	29686.067756767819	2.453211481953
5	125295	29691.877781351964	4.387929302137
5	125310	29695.7067564146	3.512600055438
5	125314	29695.861897359164	0.867372320175
5	125324	29698.015865846839	0.063919171222
5	125343	29702.002225840946	0.717901092271
5	125348	29702.288717034065	0.399775285595
5	125376	29707.169625791348	2.043141360112
5	125383	29707.755624819782	2.403260181383
5	125388	29708.929764202614	3.148148219796
5	125402	29711.019299114665	0.973276562391
5	125420	29716.075053520169	1.017420292772
5	125426	29717.079693454913	1.224204537659
5	125434	29718.043492636012	2.130053964383
5	125438	29718.456476066963	0.988374155684
5	125447	29720.876421512944	2.018883423599
5	125463	29723.962607817151	0.363546849814
5	125471	29727.657383188872	0.008912285986
5	125483	29729.85972284876	1.853062664852
5	125499	29731.435980733372	1.290062861099
5	125504	29731.562399649141	1.332289542035
5	125509	29732.458954310203	2.036225215046
5	125537	29740.526930797632	2.291468888361
5	125541	29740.844076915176	1.685268733655
5	125548	29741.092374297156	0.003436445849
5	125558	29745.086731376784	0.05075617966
5	125591	29756.916745968979	0.306608875727
5	125608	29760.121924619943	1.273977728369
5	125624	29764.209799084015	3.997564936945
5	125637	29769.559410625561	6.244518215722
5	125648	29775.624339302382	11.162183622048
5	125655	29777.04163781604	2.757371716807
5	125670	29780.394740585721	3.32315674979
5	125676	29780.94832701249	2.827433696713
5	125707	29784.357181175219	1.883015042168
5	125713	29785.976282940456	2.450092381438
5	125744	29797.620071324109	2.648602630489
5	125754	29799.338566516835	2.678568644343
5	125762	29800.046180280997	1.677370832731
5	125798	29805.521807407462	3.49262081505
5	125825	29814.404809475994	1.534303682685
5	125836	29819.007051702958	2.481980538188
5	125846	29821.226171797413	3.823416777298
5	125851	29821.904604178901	2.740686472364
5	125855	29822.053982078163	2.833117850229
5	125869	29827.232334382483	2.868893675785
5	125885	29838.602505039011	2.217456625253
5	125899	29843.354992838777	4.590676449889
5	125908	29844.074270464724	3.103210892672
5	125912	29844.338801122412	0.929417215598
5	125936	29850.830814709661	1.635323707416
5	125943	29854.6854457145	0.112069327889
5	125961	29859.355938470198	1.123244066899
5	125992	29870.527667527806	5.985300272216
5	125999	29870.96762823137	4.339262631153
5	126009	29874.176851578334	7.227041158725
5	126017	29875.159121541289	6.661400474609
5	126023	29876.082079335756	7.217557986673
5	126029	29876.428768581809	5.851111462856
5	126036	29877.00216503223	4.699568992837
5	126043	29879.758033751531	4.966521494633
5	126049	29881.548245190279	4.803825693333
5	126065	29886.339411480207	0.851843275321
5	126072	29887.56225161694	1.404181911773
5	126094	29894.965861485928	5.491161198607
5	126099	29896.147933710994	5.20273436426
5	126106	29897.287155487856	5.064431021361
5	126111	29897.388367345238	4.66468008913
5	126127	29902.118590958222	3.004741739371
5	126168	29914.047542576116	0.347374280431
5	126184	29919.346210591141	2.805044429157
5	126200	29920.770865492998	0.45361066264
5	126208	29922.429349235023	0.577439650084
5	126217	29924.08418537635	0.132039562958
5	126234	29926.432570118174	0.330966619413
5	126249	29930.446411950891	3.211582711459
5	126254	29930.936182939365	2.174704239168
5	126284	29942.630057378	2.973978170206
5	126295	29945.27888677159	5.058352706225
5	126302	29945.355831514648	1.0949314721
5	126311	29945.812225897336	1.269337638012
5	126316	29946.126990227087	0.752828450241
5	126322	29946.326776125043	0.682190322697
5	126357	29956.875741315418	5.015733956658
5	126377	29963.901938258225	1.505411036023
5	126403	29973.072203724622	3.640802512099
5	126408	29973.265058147922	3.823148267218
5	126413	29973.439016565706	3.583390559423
5	126419	29974.384157328946	3.912207391711
5	126424	29974.724089721091	4.226435993063
5	126429	29977.332320003083	6.556118067733
5	126437	29979.520980068369	0.074058510757
5	126447	29982.982408080533	2.67416942778
5	126457	29986.232492148413	5.909468855742
5	126463	29987.473516755964	3.849676976765
5	126489	29993.758774102387	1.183294206249
5	126496	29996.914635493496	0.801071345287

