version 2
run Second-n4-11-20191016-14:53:21-8260
attr configname Second-n4
attr datetime 20191016-14:53:21
attr experiment Second-n4
attr inifile omnetpp.ini
attr iterationvars ""
attr iterationvarsf ""
attr measurement ""
attr network org.omnetpp.queueing.Pizza
attr processid 8260
attr repetition 11
attr replication ""
attr resultdir results
attr runnumber 11
attr seedset 11
param **.PS.maxInventoriedPS 4
param **.U1.interArrivalTime exponential(3s)
param **.U2.interArrivalTime exponential(5s)
param **.PS.serviceTimeForInventoryU1 exponential(1.0s)
param **.PS.serviceTimeForInventoryU2 exponential(1.2s)
param **.PS.serviceTimeDirectU1 exponential(1.4s)
param **.PS.serviceTimeDirectU2 exponential(1.4s)
param **.PS.probabilityProducing 0.7
param **.CS.serviceTimeU1 exponential(1.1s)
param **.CS.serviceTimeU2 exponential(1.4s)

vector 0 Pizza.EntryQueueU1 queueLength:vector ETV
attr interpolationmode sample-hold
attr title "queue length, vector"
vector 1 Pizza.CS queueLength:vector ETV
attr interpolationmode sample-hold
attr title "queue length, vector"
vector 2 Pizza.EntryQueueU2 queueLength:vector ETV
attr interpolationmode sample-hold
attr title "queue length, vector"
vector 3 Pizza.sink lifeTime:vector ETV
attr interpolationmode none
attr title "lifetime of arrived jobs, vector"
attr unit s
vector 4 Pizza.sink lifeTimeU2:vector ETV
attr interpolationmode none
attr title "lifetime of arrived jobs, vector"
attr unit s
0	0	0	0
0	7	0.596339664521	1
0	9	1.243784658675	2
0	12	2.039243283073	1
0	22	5.116016474486	2
0	23	5.462739358186	1
0	28	5.589365504585	0
0	41	11.729893309499	1
0	42	11.87554105472	0
0	48	12.10229102321	1
0	51	12.617904401435	2
0	52	13.531638208422	1
0	57	13.996439819111	0
0	154	39.607201022871	1
0	155	42.20169132348	0
0	169	43.587518141496	1
0	170	43.619174544409	0
0	196	51.192020357137	1
0	201	52.155835466235	2
0	202	52.507184876197	1
0	207	52.884639349522	0
0	238	56.355946746885	1
0	239	56.860653877338	0
0	271	64.064212469591	1
0	274	64.906464820629	0
0	289	67.792647660102	1
0	293	68.327227319443	2
0	294	68.63596410877	1
0	300	69.099237427074	0
0	307	69.625934832113	1
0	314	71.850024014007	2
0	315	73.112519965357	1
0	321	75.033893587299	0
0	346	79.59036420094	1
0	349	79.941803308105	0
0	367	85.122061220093	1
0	369	87.236376327684	0
0	381	90.632685096334	1
0	383	91.761915273853	2
0	384	92.278703069126	1
0	389	92.57819239746	0
0	395	92.626947662148	1
0	397	93.804216785769	0
0	419	102.280774999573	1
0	422	104.415421347081	0
0	450	110.241679101892	1
0	452	111.037026293489	2
0	453	111.556765117874	1
0	460	111.619091263604	0
0	474	114.509318851613	1
0	476	116.588083610381	0
0	493	118.88225543348	1
0	496	120.006531094634	2
0	497	120.422598039267	1
0	502	120.740319903185	0
0	531	124.019888594189	1
0	532	124.101549516829	0
0	591	138.535380208958	1
0	592	138.868576887534	0
0	631	146.586293532323	1
0	632	146.614248161823	0
0	659	152.193906719715	1
0	661	152.37863857412	2
0	663	152.947129386963	3
0	665	154.557137111532	4
0	667	155.104875038646	5
0	671	156.717459756387	6
0	676	157.382441269743	5
0	683	158.497934278638	6
0	685	160.490268648998	5
0	691	160.637545519576	6
0	692	161.545977087259	5
0	698	161.710404874311	6
0	703	163.950424350557	5
0	708	164.075539968045	4
0	715	164.366483753319	5
0	716	164.556366087142	4
0	723	165.424469976947	3
0	730	166.191715788808	2
0	737	168.726100873229	1
0	745	173.171380339488	0
0	757	174.421098257569	1
0	761	176.281375324564	0
0	791	183.607269247876	1
0	793	184.185166372683	2
0	795	184.36839596727	3
0	798	185.081269056684	4
0	801	187.363343374876	3
0	806	187.62138590705	2
0	811	187.706141550092	1
0	817	187.969928978169	2
0	818	188.61544961104	1
0	823	188.652412601114	0
0	827	188.921877397937	1
0	829	189.203673320545	2
0	834	191.089072499624	1
0	842	191.587185648773	2
0	845	192.572101181668	3
0	849	193.008958831822	2
0	854	193.854596766389	1
0	862	194.444764948058	2
0	863	195.064153178406	1
0	868	195.746914542105	0
0	907	199.149861238722	1
0	909	199.197383818981	2
0	910	199.246600589175	1
0	921	201.597421647319	0
0	927	202.005592008878	1
0	928	202.286731779805	0
0	939	203.038740660824	1
0	940	203.047233053085	0
0	976	208.19910800935	1
0	979	209.182442332007	2
0	981	210.797743066753	3
0	982	212.11417110209	2
0	987	212.295466703292	1
0	992	212.572092006163	0
0	1002	215.011827054384	1
0	1003	215.634921934273	0
0	1010	216.702033430008	1
0	1016	218.633936182126	0
0	1084	230.399901607627	1
0	1085	230.562781820247	0
0	1115	239.147038834287	1
0	1117	239.300108333786	2
0	1118	243.297253302294	1
0	1124	244.034876715535	0
0	1164	258.190725432929	1
0	1168	259.502271798433	0
0	1176	261.50648776423	1
0	1177	261.783946456311	0
0	1211	267.978736929387	1
0	1215	271.866149726802	2
0	1217	271.967621480518	3
0	1221	272.609306755986	4
0	1225	274.448147336741	5
0	1226	274.897473065333	4
0	1231	275.130238464423	3
0	1240	276.62613485629	4
0	1241	276.965869050734	3
0	1247	277.323811681611	2
0	1253	277.610361908601	3
0	1257	280.638586512055	2
0	1262	280.94332330886	1
0	1269	283.145314472888	2
0	1272	283.908818878855	3
0	1273	284.581158855463	2
0	1278	284.586409382002	1
0	1283	284.593829368848	0
0	1296	285.504153245099	1
0	1297	285.545307759427	0
0	1303	286.320885728522	1
0	1304	286.67357792082	0
0	1332	293.435396067674	1
0	1334	294.153528982811	0
0	1386	307.568582692591	1
0	1388	311.147035824168	2
0	1392	312.56316324849	1
0	1398	312.859040172716	2
0	1400	313.641589411929	1
0	1405	313.911384411869	0
0	1463	326.106229758849	1
0	1466	327.485813389881	0
0	1478	329.338024154709	1
0	1482	329.933333614198	2
0	1483	329.953714707362	1
0	1489	330.725887641213	0
0	1503	334.157836136492	1
0	1504	334.505449320944	0
0	1510	334.842594369544	1
0	1512	335.885294903044	2
0	1513	336.031962853653	1
0	1518	337.625834825638	0
0	1536	341.431601194456	1
0	1537	341.713787357468	0
0	1545	342.773107752064	1
0	1546	344.693608235051	0
0	1558	345.351539176835	1
0	1561	345.819336481196	0
0	1586	351.856965774221	1
0	1589	352.589786806644	0
0	1599	354.375767333077	1
0	1601	354.499307548088	2
0	1605	356.073819335967	3
0	1606	356.339289564365	2
0	1613	358.222944867929	1
0	1619	358.935604094994	0
0	1656	371.722301361335	1
0	1660	372.342474929789	2
0	1662	373.490846393344	1
0	1668	374.43283311479	2
0	1675	376.365997323476	3
0	1678	377.16780872254	4
0	1679	377.478394414	3
0	1684	377.994069754205	2
0	1691	378.639430099774	1
0	1696	379.117332286579	0
0	1728	382.016563571407	1
0	1733	383.639001011264	2
0	1734	384.248325969788	1
0	1739	384.44463342071	0
0	1754	386.172967959585	1
0	1755	386.266006472621	0
0	1764	389.7326539611	1
0	1766	390.000012953045	2
0	1769	394.517146912846	1
0	1775	394.707531740156	2
0	1777	394.765085621426	3
0	1779	395.551112632762	2
0	1784	395.632519836502	1
0	1789	396.8368129391	0
0	1812	400.865983724669	1
0	1814	400.877756439647	2
0	1817	402.842273353262	3
0	1818	403.720237017113	2
0	1825	404.487987686613	1
0	1830	405.112335788276	0
0	1906	436.963529125276	1
0	1911	438.078854093757	0
0	1985	453.596256658746	1
0	1986	454.192915176256	0
0	1993	456.505525946417	1
0	2000	459.281028325145	2
0	2001	459.783854106328	1
0	2006	460.107438736463	0
0	2016	460.509366491452	1
0	2019	461.352159245438	0
0	2051	467.72710200285	1
0	2054	468.369904021025	0
0	2073	475.067982500962	1
0	2077	476.352204018421	2
0	2079	476.494578628781	3
0	2081	477.301986125837	4
0	2082	477.729466140256	3
0	2094	480.172284330064	2
0	2102	482.972292375723	1
0	2108	483.562352509168	2
0	2109	483.659985768104	1
0	2117	487.750729053319	2
0	2120	489.516360397746	1
0	2125	490.558480812341	0
0	2144	495.483371885775	1
0	2146	496.733469909392	0
0	2159	500.314935688921	1
0	2160	500.434401010988	0
0	2166	500.607569305263	1
0	2170	501.582543382633	0
0	2190	503.56040968327	1
0	2194	504.604628619102	2
0	2195	506.875148816892	1
0	2200	507.362868340681	0
0	2213	511.091500049733	1
0	2214	512.312473939719	0
0	2228	514.746435118756	1
0	2232	516.697594929458	2
0	2234	517.910590686683	3
0	2235	518.599148220974	2
0	2243	518.904043773436	3
0	2245	520.005746447176	4
0	2247	521.847211731209	5
0	2248	522.474378331536	4
0	2254	523.795253345767	3
0	2260	524.283439949951	4
0	2261	525.212424140189	3
0	2267	527.259227444701	2
0	2275	528.561604362357	3
0	2277	528.82916194599	2
0	2283	529.614065477703	1
0	2290	530.344381481979	2
0	2295	531.966116494683	3
0	2296	532.494845117133	2
0	2302	534.047880854128	1
0	2307	534.097956354767	0
0	2372	546.434316048307	1
0	2373	547.351063118691	0
0	2379	547.666940495836	1
0	2383	551.037238003169	0
0	2389	551.390236703038	1
0	2391	551.62673201486	0
0	2409	553.884091309057	1
0	2411	554.590851906657	2
0	2417	557.2637405266	1
0	2423	557.70474083473	0
0	2440	561.541604724265	1
0	2441	562.293410709645	0
0	2447	562.503290875128	1
0	2450	563.4408743561	2
0	2454	564.008439925103	1
0	2460	565.517625932931	0
0	2483	567.651248021192	1
0	2494	573.119172891046	0
0	2500	573.515646880645	1
0	2502	575.092513650869	2
0	2506	576.14792415072	1
0	2511	576.239191648063	0
0	2539	580.395250312477	1
0	2543	581.376541266504	0
0	2578	594.393358704879	1
0	2579	595.896785048545	0
0	2594	600.633573547119	1
0	2596	601.780037983987	2
0	2597	602.172342533057	1
0	2604	602.384731299454	2
0	2605	603.594246225872	1
0	2610	603.67749452447	0
0	2632	609.161206880977	1
0	2635	610.474376557475	0
0	2645	613.06760600236	1
0	2646	613.551189700906	0
0	2683	621.282426999769	1
0	2684	621.506263703274	0
0	2695	624.206474243687	1
0	2697	624.373650210202	2
0	2700	627.034150855374	3
0	2703	628.868785930424	2
0	2709	629.930051962065	1
0	2714	630.660377896051	0
0	2721	631.338725305599	1
0	2722	631.373375844876	0
0	2733	632.676756631154	1
0	2736	633.977833350604	0
0	2745	635.466264294807	1
0	2756	639.340615812388	0
0	2780	646.777064941852	1
0	2781	647.278723092034	0
0	2802	650.973832237629	1
0	2806	652.663968369671	2
0	2807	654.79261990501	1
0	2813	655.135401050131	2
0	2814	655.721813862083	1
0	2820	656.008049194019	0
0	2877	681.858820883763	1
0	2878	682.591324294293	0
0	2884	683.03807024279	1
0	2886	683.363128718509	0
0	2892	683.421097140548	1
0	2895	684.986746196304	0
0	2986	713.262756758235	1
0	2989	714.240259850395	0
0	3029	727.246308018186	1
0	3033	727.773720635645	2
0	3035	728.137963594771	1
0	3044	731.831344851457	2
0	3045	731.978097222535	1
0	3054	733.237302760241	2
0	3057	733.692810207599	1
0	3062	735.435778444703	0
0	3085	741.653154142052	1
0	3087	742.78632136709	0
0	3110	746.695134149297	1
0	3112	747.482294646819	2
0	3114	747.590924143159	3
0	3115	747.871744216462	2
0	3120	747.963574521984	1
0	3125	748.043242243206	0
0	3131	748.456107806734	1
0	3133	748.577551617583	2
0	3134	749.180233167142	1
0	3139	749.558188098201	0
0	3143	749.675074175956	1
0	3147	750.565587025244	0
0	3167	755.493837539198	1
0	3169	756.665568574037	2
0	3170	757.146634781543	1
0	3175	757.775848141632	0
0	3212	764.256964294735	1
0	3214	765.162428418541	2
0	3216	766.305191479148	1
0	3221	766.363019732391	0
0	3236	768.891803207869	1
0	3237	769.380485692705	0
0	3245	770.413594231472	1
0	3246	771.203495762225	0
0	3267	772.945784373476	1
0	3271	773.632886684396	2
0	3273	774.241561771723	1
0	3280	774.397386402256	2
0	3281	774.530733673675	1
0	3289	775.828151097755	0
0	3308	779.74559963882	1
0	3309	779.885046966156	0
0	3332	789.055806648811	1
0	3333	789.870720849661	0
0	3343	790.333472779159	1
0	3345	790.566012363463	2
0	3347	791.174200994721	3
0	3350	791.801283443752	2
0	3358	794.06622351899	1
0	3364	796.571216529304	0
0	3409	804.240626780454	1
0	3412	805.329532894422	0
0	3419	805.461956290576	1
0	3420	805.795051122026	0
0	3438	811.275718674579	1
0	3439	811.96198746941	0
0	3488	825.496847838009	1
0	3489	825.496922505677	0
0	3507	826.254582293478	1
0	3508	827.422868298448	0
0	3664	892.604442432844	1
0	3668	892.841720788578	2
0	3669	894.097653848854	1
0	3675	894.313035342846	2
0	3677	894.934793798583	1
0	3682	896.168089692793	0
0	3697	897.535951984641	1
0	3700	899.55382159454	0
0	3720	901.937269329737	1
0	3722	902.325689017937	0
0	3728	902.989800288211	1
0	3736	907.125777024001	0
0	3742	907.189720141365	1
0	3745	908.142689756602	0
0	3751	908.3543558758	1
0	3752	910.842364398359	0
0	3763	911.039186922604	1
0	3765	911.677412071449	0
0	3778	912.449650136405	1
0	3780	913.582528052355	0
0	3790	916.019201276592	1
0	3792	916.348144690221	2
0	3799	917.498928483748	3
0	3800	917.784541579617	2
0	3805	917.819388025806	1
0	3811	919.253086442764	0
0	3822	920.754489415994	1
0	3823	923.048913996984	0
0	3834	923.366707942077	1
0	3836	923.850986414471	0
0	3858	929.434238342862	1
0	3859	930.171011922307	0
0	3867	931.97658040543	1
0	3868	932.127117287818	0
0	3874	932.424147978807	1
0	3876	933.987303461039	0
0	3882	934.154344495884	1
0	3884	934.310581876592	2
0	3886	936.169776886304	3
0	3887	936.7565123206	2
0	3895	938.271888299079	1
0	3900	938.68121948045	0
0	3915	945.536101606131	1
0	3916	945.980172042145	0
0	3995	963.331851530199	1
0	3997	963.635505025632	2
0	3999	964.496747344224	3
0	4001	966.456399796022	4
0	4002	966.911066901472	3
0	4007	966.959054822138	2
0	4014	967.789064081735	1
0	4019	968.016288485704	0
0	4039	971.048679533621	1
0	4041	971.248894413817	2
0	4043	973.382555997791	1
0	4049	973.890288560565	0
0	4064	977.334386504542	1
0	4068	978.939522236954	0
0	4079	979.570529238987	1
0	4080	980.461777356576	0
0	4104	991.982456403362	1
0	4106	993.394060211824	2
0	4107	994.093114832897	1
0	4113	994.735393748223	0
0	4119	994.972578746086	1
0	4120	996.178736361482	0
0	4163	1008.999642400107	1
0	4166	1011.478151554377	0
0	4172	1012.248369849893	1
0	4174	1014.253287021481	0
0	4186	1018.161335578598	1
0	4188	1018.955302379281	2
0	4191	1019.753763122173	1
0	4198	1021.767666783593	0
0	4241	1037.111349524393	1
0	4244	1038.328883106334	0
0	4269	1041.952380464107	1
0	4270	1042.469748976273	0
0	4278	1043.637046904107	1
0	4279	1045.407254897697	0
0	4304	1048.38107754628	1
0	4306	1048.792033603649	2
0	4310	1049.73342213481	3
0	4311	1050.751153036508	2
0	4317	1051.487550645987	1
0	4322	1054.038594425095	0
0	4326	1055.020262480775	1
0	4330	1056.575808540072	2
0	4336	1058.765658194951	1
0	4341	1059.008894457554	0
0	4345	1059.219448075579	1
0	4349	1060.662642505951	0
0	4373	1064.637260565922	1
0	4375	1064.696799863536	2
0	4376	1066.900455206578	1
0	4382	1067.852965054844	2
0	4385	1068.20564206208	3
0	4387	1069.010285395758	4
0	4388	1069.207315978562	3
0	4394	1069.548053575757	4
0	4396	1069.657358383059	5
0	4397	1069.892650119859	4
0	4403	1070.54087828399	5
0	4404	1070.587446127221	4
0	4413	1072.455103798099	3
0	4420	1074.167412701285	4
0	4421	1074.237814066821	3
0	4426	1074.879821773436	2
0	4435	1076.31660090077	1
0	4441	1077.223165185442	2
0	4442	1077.675007864036	1
0	4447	1077.822797651414	0
0	4454	1078.716997041219	1
0	4457	1079.324967888687	0
0	4469	1081.669285077251	1
0	4470	1082.358516639056	0
0	4485	1087.98693866581	1
0	4486	1090.289275613521	0
0	4498	1091.379772027054	1
0	4499	1093.72028218116	0
0	4506	1095.168953053991	1
0	4507	1096.438415859833	0
0	4518	1096.536889990178	1
0	4519	1097.047532520487	0
0	4534	1098.818523167255	1
0	4539	1099.793388745632	0
0	4587	1109.117840999735	1
0	4589	1110.221626604008	2
0	4592	1114.515245759371	1
0	4598	1115.331479629157	0
0	4611	1116.581892187733	1
0	4612	1116.984691438585	0
0	4666	1140.334065219081	1
0	4668	1141.531993117838	0
0	4674	1141.614606609582	1
0	4678	1143.693859913947	0
0	4705	1147.379361921091	1
0	4708	1148.565551189244	2
0	4709	1149.121239258214	1
0	4716	1150.174073837487	2
0	4717	1150.759767861869	1
0	4722	1151.045036939266	0
0	4754	1172.469244805511	1
0	4755	1172.94460807333	0
0	4775	1176.545545124347	1
0	4776	1176.895583288718	0
0	4789	1178.840477102179	1
0	4791	1179.397566444529	0
0	4806	1185.628085558331	1
0	4808	1187.461882103794	0
0	4821	1190.216133365899	1
0	4823	1191.228140916375	0
0	4829	1191.288178993863	1
0	4832	1191.587374964124	2
0	4834	1191.811423904769	3
0	4836	1192.244846325896	4
0	4838	1194.366990059687	5
0	4842	1195.34935825132	6
0	4843	1195.965449742566	5
0	4848	1196.546954241923	4
0	4854	1196.901098549484	3
0	4859	1197.339613467777	2
0	4864	1199.064564195713	1
0	4868	1200.008306125364	2
0	4873	1201.446128559095	1
0	4878	1202.210074611402	0
0	4885	1204.605983627302	1
0	4886	1205.253923576793	0
0	4897	1206.47842365916	1
0	4900	1207.708574977035	2
0	4901	1208.238828787297	1
0	4907	1209.235674368321	0
0	4913	1210.784572362466	1
0	4914	1211.166548891785	0
0	4941	1212.933064507988	1
0	4948	1214.65474317777	0
0	4958	1215.90613336504	1
0	4962	1216.736942452049	2
0	4966	1219.593111535963	1
0	4974	1219.931702813045	0
0	4985	1223.251491333587	1
0	4986	1223.37008651876	0
0	5015	1227.036077557062	1
0	5016	1227.097046890524	0
0	5026	1230.091580461321	1
0	5030	1232.571334020966	2
0	5032	1233.654798708803	3
0	5035	1234.907820973957	2
0	5046	1238.335573597832	1
0	5053	1238.683079452552	0
0	5061	1242.730054226144	1
0	5062	1242.929313672296	0
0	5074	1244.927017014935	1
0	5076	1245.367434545407	2
0	5078	1246.757292508075	3
0	5079	1247.299912547818	2
0	5084	1247.958370661846	1
0	5089	1248.930086877011	0
0	5096	1249.434496280003	1
0	5100	1250.238217190624	2
0	5104	1250.34300627988	3
0	5106	1252.172405743212	4
0	5111	1255.130231724517	3
0	5118	1255.625606438914	4
0	5119	1255.949119412314	3
0	5125	1257.202977169411	2
0	5130	1257.325867717753	1
0	5136	1257.825224210985	0
0	5167	1263.783291542092	1
0	5168	1264.163216535041	0
0	5179	1265.778509861662	1
0	5182	1265.915545454822	2
0	5183	1267.140279354442	1
0	5189	1267.521249225806	2
0	5191	1268.603116288754	1
0	5196	1268.644231765456	0
0	5213	1274.728822782305	1
0	5214	1275.323362273549	0
0	5257	1293.533350019566	1
0	5261	1294.15830210769	2
0	5264	1298.002013386525	1
0	5271	1300.257583373048	2
0	5274	1302.485903795706	1
0	5279	1302.551629933171	0
0	5288	1303.353471995276	1
0	5295	1305.842082710164	0
0	5320	1313.032948821891	1
0	5324	1313.231835182269	2
0	5326	1313.642608795857	3
0	5328	1314.256868328821	4
0	5329	1314.383366098039	3
0	5336	1314.540701118262	4
0	5337	1315.327300913659	3
0	5342	1315.946461644966	2
0	5347	1316.102723532819	1
0	5353	1316.400597767012	2
0	5355	1316.488079223146	3
0	5356	1316.698492940405	2
0	5361	1316.734897425286	1
0	5365	1317.91054460014	2
0	5367	1317.92154513368	3
0	5369	1318.191793292741	4
0	5372	1318.47926376583	3
0	5378	1321.56456634284	2
0	5384	1322.43737185717	3
0	5392	1324.601454141998	2
0	5400	1327.085359498528	1
0	5406	1328.81449134745	0
0	5415	1330.550381026381	1
0	5417	1330.82881019829	2
0	5418	1330.9066201696	1
0	5424	1331.538352081878	0
0	5431	1331.822792349592	1
0	5433	1332.319502708188	0
0	5497	1347.456564766584	1
0	5498	1347.565086935501	0
0	5517	1351.446449220701	1
0	5518	1353.181824259226	0
0	5525	1354.669413130759	1
0	5529	1355.785345519013	2
0	5530	1356.088758792864	1
0	5536	1356.757549574976	0
0	5566	1362.704693204484	1
0	5567	1362.869776500266	0
0	5577	1363.887709790525	1
0	5578	1364.610699931698	0
0	5614	1375.328018916909	1
0	5615	1375.76333742839	0
0	5638	1381.375952768381	1
0	5639	1381.7332473855	0
0	5717	1411.352344364707	1
0	5719	1411.726214031807	2
0	5720	1412.173929177923	1
0	5725	1412.25336834217	0
0	5729	1412.448385740369	1
0	5737	1415.12729979504	2
0	5741	1416.187161428531	3
0	5743	1416.308752808078	4
0	5747	1416.876639607817	3
0	5753	1418.040251398178	4
0	5755	1418.527499084358	3
0	5764	1420.002124955191	2
0	5769	1420.463214556816	1
0	5774	1421.370382760637	0
0	5782	1423.270593603421	1
0	5784	1423.744056153565	2
0	5789	1427.595529820904	1
0	5795	1429.194742732206	2
0	5797	1431.780428174005	3
0	5798	1431.922555993746	2
0	5802	1433.377724866455	3
0	5806	1435.087154817844	4
0	5811	1436.917465793081	3
0	5818	1438.062671022725	2
0	5823	1439.010846276445	1
0	5829	1439.86222116872	0
0	5838	1442.000280706435	1
0	5843	1444.242392982822	2
0	5844	1446.663031518878	1
0	5850	1447.9606782793	0
0	5884	1453.20702996717	1
0	5887	1454.463288731824	2
0	5889	1454.709240201223	3
0	5890	1454.746682226949	2
0	5896	1454.781223240584	3
0	5897	1455.07701787051	2
0	5904	1455.990465420438	1
0	5910	1456.839857194135	0
0	5923	1458.609716881707	1
0	5924	1458.717293054362	0
0	5943	1465.177746517305	1
0	5944	1466.190879274783	0
0	5953	1467.014436813233	1
0	5955	1468.517993278689	2
0	5957	1469.228061060963	3
0	5963	1470.706516272442	4
0	5964	1472.226368137822	3
0	5970	1472.28218667121	4
0	5971	1472.6149850838	3
0	5976	1472.816434742329	2
0	5981	1473.653039817719	1
0	5986	1474.071979631772	0
0	6004	1475.447291661747	1
0	6006	1475.895337584341	0
0	6012	1476.297397166491	1
0	6014	1477.303081276487	0
0	6042	1481.305077555442	1
0	6046	1483.255338331897	2
0	6048	1483.650393925816	3
0	6051	1485.31750998969	4
0	6053	1485.701493441151	3
0	6059	1485.724666904488	4
0	6060	1486.444222677781	3
0	6071	1488.232980951732	2
0	6079	1488.297447662113	3
0	6080	1489.277585401774	2
0	6087	1489.845530942161	1
0	6094	1495.992511778077	0
0	6119	1501.071893677335	1
0	6122	1501.521668992368	0
0	6141	1507.391175002562	1
0	6144	1508.132394145119	0
0	6157	1510.603007774276	1
0	6159	1511.000567146444	2
0	6164	1512.088098349778	1
0	6170	1513.425240774767	0
0	6181	1514.249415672193	1
0	6183	1515.189416668799	2
0	6184	1515.941077406384	1
0	6190	1516.064226446714	2
0	6192	1516.245318212688	3
0	6195	1517.22285206043	2
0	6200	1517.247498533773	1
0	6206	1517.682364220549	0
0	6228	1522.204011176798	1
0	6229	1522.348616631148	0
0	6235	1522.964332276356	1
0	6237	1523.547962891307	0
0	6243	1524.091666313908	1
0	6244	1524.264858795474	0
0	6250	1524.870875469783	1
0	6251	1525.355970456328	0
0	6257	1526.356853875712	1
0	6260	1526.868267093245	0
0	6272	1530.045357583831	1
0	6275	1530.11502668574	2
0	6277	1530.840448622893	3
0	6278	1532.384408590879	2
0	6285	1533.366396311059	1
0	6289	1534.751871304443	2
0	6291	1536.036593851483	3
0	6293	1538.747891350716	4
0	6295	1540.699902327776	5
0	6298	1543.719445374049	4
0	6304	1543.948233016913	5
0	6305	1544.309446305345	4
0	6309	1545.112317960481	5
0	6311	1546.001368195553	6
0	6316	1548.94074167367	5
0	6322	1550.209453815658	4
0	6328	1551.771330851169	3
0	6334	1552.031821859141	4
0	6337	1552.843174672205	3
0	6342	1553.356940794334	2
0	6353	1557.463024730728	1
0	6359	1557.494783879943	2
0	6360	1559.158844382672	1
0	6365	1559.350405895307	0
0	6427	1573.482141878313	1
0	6429	1573.815234668128	0
0	6446	1575.219495158317	1
0	6447	1576.53859685094	0
0	6517	1590.606170222168	1
0	6519	1590.746874576725	0
0	6526	1592.77658807201	1
0	6528	1593.650095419036	2
0	6529	1594.068405052904	1
0	6536	1595.172805826976	0
0	6542	1597.207700178039	1
0	6546	1597.793396725988	2
0	6547	1597.975952286028	1
0	6557	1599.753916093242	0
0	6563	1600.344159032536	1
0	6571	1603.795186211125	0
0	6596	1610.787336588925	1
0	6599	1611.516067121757	2
0	6601	1611.687510786184	3
0	6602	1611.746766469765	2
0	6609	1612.265821245302	3
0	6610	1613.287322673116	2
0	6616	1613.36137335543	3
0	6618	1614.071658646555	2
0	6624	1614.739323459597	1
0	6629	1614.742963637151	0
0	6657	1621.088753770931	1
0	6658	1621.798088830404	0
0	6667	1623.699641999442	1
0	6668	1624.649757427021	0
0	6677	1625.351043526643	1
0	6679	1625.62143973725	2
0	6681	1626.444783703777	3
0	6685	1627.268977891956	2
0	6690	1627.38550145975	1
0	6696	1628.424705015421	2
0	6700	1629.989665390178	3
0	6701	1630.597907841696	2
0	6706	1630.637541416743	1
0	6712	1631.191381074198	2
0	6713	1631.296765198514	1
0	6720	1633.966274516065	0
0	6737	1637.629781704134	1
0	6740	1638.600047600974	2
0	6741	1638.641570306246	1
0	6746	1638.720790125039	0
0	6771	1645.854482626152	1
0	6772	1646.648083535028	0
0	6801	1650.783611026295	1
0	6802	1650.943567092875	0
0	6814	1653.170185195616	1
0	6815	1653.836098402192	0
0	6823	1656.080517033896	1
0	6826	1657.911463983843	0
0	6864	1669.702051816755	1
0	6866	1671.573957961545	0
0	6872	1672.013899239565	1
0	6874	1673.601555412797	0
0	6885	1674.013502418148	1
0	6888	1674.856390366354	0
0	6897	1675.791918823759	1
0	6899	1678.031204951011	2
0	6902	1678.464589106229	1
0	6907	1678.696629683757	0
0	6913	1678.825940308441	1
0	6914	1679.093296798951	0
0	6997	1701.537093205556	1
0	7000	1705.902959062027	0
0	7013	1706.538398951488	1
0	7014	1706.665712968759	0
0	7023	1706.836471215993	1
0	7026	1708.612264946496	0
0	7144	1741.13274875843	1
0	7147	1741.697579269088	0
0	7251	1764.464279794057	1
0	7252	1765.475882471493	0
0	7292	1775.927597042655	1
0	7293	1775.952935865229	0
0	7332	1786.326292437482	1
0	7333	1786.40426760206	0
0	7421	1810.613946630976	1
0	7424	1812.688221148504	2
0	7426	1813.186742381367	3
0	7428	1815.034804536093	4
0	7430	1816.04942495781	5
0	7431	1816.870861837407	4
0	7436	1817.406523205133	3
0	7441	1817.648465379184	2
0	7446	1817.654072907668	1
0	7452	1818.811293729569	0
0	7477	1821.883106718741	1
0	7479	1822.675423976396	2
0	7483	1823.421006636556	1
0	7489	1825.190241883653	2
0	7492	1826.158373717438	1
0	7498	1827.480181740371	0
0	7502	1827.607215524981	1
0	7505	1828.108072506299	0
0	7539	1836.634997730705	1
0	7543	1838.358772200157	0
0	7566	1841.650614467558	1
0	7568	1841.677237950195	2
0	7570	1842.253540506792	3
0	7573	1843.75550289775	2
0	7582	1846.567115387862	1
0	7588	1846.667363850887	2
0	7589	1846.77217017764	1
0	7594	1847.051848950813	0
0	7598	1847.37994165486	1
0	7603	1849.589001794966	0
0	7611	1850.212729817867	1
0	7619	1855.494722146346	2
0	7621	1855.591561869967	3
0	7622	1856.323360545378	2
0	7627	1856.353986360368	1
0	7635	1857.058744367912	0
0	7655	1858.763156999002	1
0	7664	1862.99971394826	0
0	7675	1864.838017613606	1
0	7678	1866.968521186001	2
0	7679	1868.101527908044	1
0	7684	1868.353062899066	0
0	7708	1875.994838772309	1
0	7711	1878.119551677069	0
0	7728	1882.360438470929	1
0	7729	1882.944944653582	0
0	7738	1883.323181657887	1
0	7745	1886.33621285112	2
0	7747	1886.667802378778	3
0	7749	1887.01091170565	4
0	7750	1888.462687768828	3
0	7757	1889.666515823778	2
0	7762	1889.73657093943	1
0	7771	1891.133134981448	2
0	7773	1891.493011520059	3
0	7774	1891.843427042299	2
0	7780	1892.30665705656	1
0	7785	1892.793594089204	0
0	7802	1893.695390552879	1
0	7805	1894.223222838367	2
0	7806	1894.445779215809	1
0	7815	1895.434466907095	2
0	7817	1895.548932718002	1
0	7824	1895.966343545688	0
0	7842	1898.769249078849	1
0	7844	1898.842960683352	2
0	7845	1899.301059368635	1
0	7850	1899.48823975913	0
0	7872	1906.49915694492	1
0	7875	1907.075762720498	0
0	7900	1910.414605922477	1
0	7901	1910.859795745401	0
0	7920	1913.747405991081	1
0	7923	1916.65654577637	0
0	7960	1925.076473073414	1
0	7961	1925.70996098063	0
0	7976	1928.745412035191	1
0	7978	1929.000058957224	2
0	7979	1929.100352254001	1
0	7984	1930.74244592336	0
0	7991	1931.050683461522	1
0	7992	1931.332202339859	0
0	8022	1940.908744570934	1
0	8026	1941.287621112215	2
0	8027	1941.758876739135	1
0	8032	1942.175714493519	0
0	8064	1949.992923463387	1
0	8065	1950.210195880027	0
0	8071	1950.423650804701	1
0	8072	1950.730770724491	0
0	8103	1956.727432474916	1
0	8104	1957.28660653701	0
0	8124	1967.382198097321	1
0	8126	1967.750975356057	2
0	8129	1968.306063914502	1
0	8134	1968.491593649474	0
0	8141	1969.049123385363	1
0	8142	1969.253448856045	0
0	8148	1970.53265637975	1
0	8152	1972.654266068561	0
0	8170	1976.32730462804	1
0	8173	1977.106458620125	0
0	8190	1986.096725651965	1
0	8191	1986.298851295784	0
0	8208	1990.641871282512	1
0	8213	1992.710103112316	0
0	8234	1998.621708694718	1
0	8235	1999.21949836292	0
0	8264	2005.881746218365	1
0	8271	2008.392104494487	2
0	8272	2009.147458391709	1
0	8277	2009.886027044769	0
0	8307	2016.784985385582	1
0	8312	2017.628780908841	2
0	8313	2018.0877162883	1
0	8318	2018.54057510763	0
0	8331	2020.36015824491	1
0	8334	2020.877192521821	2
0	8338	2021.36397339251	1
0	8343	2021.870756859693	0
0	8369	2028.39252781618	1
0	8371	2028.418033404624	2
0	8374	2030.999518449818	1
0	8379	2033.433847633874	0
0	8398	2036.530247982576	1
0	8402	2039.331421067627	2
0	8406	2039.589147310124	3
0	8408	2040.019984475482	4
0	8409	2040.486054466933	3
0	8414	2041.817673867452	2
0	8420	2042.06425680053	3
0	8423	2044.478357057976	4
0	8425	2045.017406330394	5
0	8427	2045.333318580644	4
0	8433	2046.553331310728	5
0	8435	2047.321344451026	6
0	8436	2047.735543108341	5
0	8441	2047.934182390113	4
0	8447	2048.203231785827	3
0	8455	2050.316987021114	2
0	8463	2050.893315989249	3
0	8465	2051.212487965423	4
0	8466	2051.436681639294	3
0	8473	2052.847988209775	2
0	8481	2054.711773062155	1
0	8487	2055.008845795434	2
0	8491	2056.499879466699	3
0	8493	2056.713258182572	4
0	8494	2057.063974699156	3
0	8501	2058.649975762037	4
0	8502	2058.792342553913	3
0	8514	2062.704648210594	2
0	8519	2062.944455001614	1
0	8526	2064.532893581921	0
0	8532	2065.172568552236	1
0	8533	2065.279091035565	0
0	8577	2072.044354931283	1
0	8583	2072.91798846365	2
0	8584	2073.290166947098	1
0	8590	2074.162949289232	0
0	8598	2075.086037405799	1
0	8599	2075.087861067554	0
0	8621	2078.180488118752	1
0	8623	2078.629667963822	2
0	8627	2079.682365732158	3
0	8630	2084.393028344699	2
0	8635	2084.766417197814	1
0	8640	2085.247555418309	0
0	8649	2086.025038429456	1
0	8653	2088.763034221107	0
0	8666	2091.134787333861	1
0	8669	2091.705913326026	2
0	8671	2091.842782383677	1
0	8676	2091.939606130554	0
0	8682	2092.337312682432	1
0	8683	2092.535562902945	0
0	8723	2106.008238558859	1
0	8727	2106.608514944406	0
0	8733	2107.013611884291	1
0	8737	2108.077321683322	2
0	8738	2108.914359011226	1
0	8748	2111.72888410082	0
0	8767	2114.420685246042	1
0	8770	2115.223894591711	0
0	8786	2121.658096094684	1
0	8790	2124.825834956824	2
0	8792	2125.041635345848	3
0	8793	2128.795385620684	2
0	8800	2129.823561709663	3
0	8801	2130.199154147422	2
0	8809	2131.467273753243	1
0	8814	2131.490399579008	0
0	8822	2133.277634567365	1
0	8824	2134.454634065588	2
0	8825	2135.336424013133	1
0	8835	2138.067306563877	0
0	8870	2142.457406137058	1
0	8871	2142.815774476807	0
0	8930	2159.196590842984	1
0	8932	2159.612275128517	2
0	8936	2160.23112740087	3
0	8938	2161.619373029007	4
0	8939	2162.020829072641	3
0	8944	2162.077043618154	2
0	8950	2162.302791172394	3
0	8951	2162.532864698432	2
0	8957	2163.3428002257	3
0	8958	2165.042725224319	2
0	8965	2165.399250304414	1
0	8969	2165.52441403137	2
0	8974	2166.497457793619	1
0	8979	2167.73538861344	0
0	9008	2176.738797920025	1
0	9012	2177.440901579706	0
0	9031	2182.000031801642	1
0	9032	2182.320748363322	0
0	9069	2188.786049040022	1
0	9070	2189.215796678013	0
0	9076	2189.410488832206	1
0	9077	2189.555842450822	0
0	9083	2189.75461152198	1
0	9084	2189.954759096377	0
0	9102	2194.069850136857	1
0	9104	2194.54361173155	2
0	9105	2194.54545781167	1
0	9112	2195.865749870523	2
0	9113	2196.372995447353	1
0	9119	2197.150374012196	0
0	9125	2197.518361787998	1
0	9126	2198.375384614655	0
0	9132	2198.65556621041	1
0	9133	2198.877194328152	0
0	9167	2207.283110178586	1
0	9168	2207.72591921037	0
0	9259	2233.181700616355	1
0	9260	2233.334478541191	0
0	9291	2238.95840666216	1
0	9293	2239.404534837622	0
0	9315	2249.286996811087	1
0	9316	2249.504327969922	0
0	9323	2250.007005964523	1
0	9325	2250.140531680472	2
0	9326	2252.181427149721	1
0	9331	2252.561516959777	0
0	9361	2263.627029925015	1
0	9362	2263.950310838709	0
0	9386	2270.72512488657	1
0	9387	2270.759754134216	0
0	9401	2271.425678116829	1
0	9404	2273.48493950595	0
0	9455	2283.179309605707	1
0	9458	2283.649241623415	2
0	9459	2283.792287872361	1
0	9464	2284.602623056595	0
0	9473	2286.963829861417	1
0	9476	2287.198529520509	0
0	9490	2292.853432174831	1
0	9493	2293.743671826192	0
0	9586	2316.631099792988	1
0	9589	2318.282654143629	2
0	9590	2320.476447989721	1
0	9596	2321.071824044264	0
0	9628	2328.112232700254	1
0	9629	2328.837075277724	0
0	9636	2331.285143411052	1
0	9638	2331.454234821353	2
0	9640	2331.726289814953	3
0	9642	2332.985508117697	4
0	9643	2333.143841502852	3
0	9649	2333.724206281591	4
0	9650	2333.892876561741	3
0	9656	2333.92489620065	4
0	9659	2334.701870141903	3
0	9664	2334.743728808218	2
0	9669	2334.812893325151	1
0	9674	2334.813629559807	0
0	9689	2335.504424424787	1
0	9691	2336.404416466728	0
0	9697	2337.270046734353	1
0	9698	2337.290100965243	0
0	9705	2338.825497970262	1
0	9709	2340.6846566023	2
0	9710	2341.103867993417	1
0	9717	2341.325794594378	0
0	9723	2341.332956923436	1
0	9730	2343.859222002134	2
0	9731	2344.186879024729	1
0	9738	2348.281680572092	2
0	9740	2348.710669798891	3
0	9741	2351.321409825552	2
0	9746	2351.930213900263	1
0	9751	2352.134509970121	0
0	9779	2359.408994837678	1
0	9781	2359.815537130865	2
0	9782	2361.995719611286	1
0	9787	2362.011519291166	0
0	9819	2373.060923900092	1
0	9822	2374.283934203701	0
0	9828	2374.494685247753	1
0	9830	2374.60830443211	2
0	9832	2375.229127655353	1
0	9838	2375.685984964255	2
0	9840	2376.239127350183	3
0	9847	2378.622068873074	2
0	9852	2378.996604099762	1
0	9858	2379.574903833613	0
0	9874	2381.435890269453	1
0	9875	2381.580200899315	0
0	9883	2382.490773618227	1
0	9884	2382.909041516669	0
0	9890	2383.200902078247	1
0	9893	2383.689462178693	2
0	9900	2385.161521495775	3
0	9901	2387.212085572072	2
0	9906	2387.513455870648	1
0	9912	2388.33856392561	0
0	9925	2388.874270797762	1
0	9926	2389.000922181138	0
0	9991	2406.186918952825	1
0	9992	2407.200514962953	0
0	10035	2416.786251546019	1
0	10036	2417.512453070669	0
0	10042	2417.904426041395	1
0	10044	2418.463760695579	2
0	10046	2419.378313907035	1
0	10051	2419.421996324546	0
0	10067	2423.640990004442	1
0	10068	2424.851705651324	0
0	10157	2448.878196264274	1
0	10159	2449.418828013861	0
0	10165	2449.81396119736	1
0	10166	2450.75725421349	0
0	10183	2453.275388246478	1
0	10184	2453.363907425084	0
0	10212	2456.976584611367	1
0	10213	2456.993430534394	0
0	10251	2464.915514046798	1
0	10253	2465.22153882108	2
0	10256	2466.537730273814	3
0	10258	2466.681431297869	4
0	10260	2469.203561236165	3
0	10265	2469.464253348799	2
0	10270	2469.738321490131	1
0	10277	2470.892714710137	0
0	10290	2471.74592134187	1
0	10292	2472.632512811319	2
0	10295	2474.328907721001	1
0	10302	2474.920844557244	0
0	10310	2475.496914945748	1
0	10314	2477.933694823238	0
0	10341	2482.286435220661	1
0	10343	2482.418697236203	2
0	10346	2483.536569829179	3
0	10348	2484.253069259488	4
0	10349	2485.908180583827	3
0	10355	2485.950009544263	4
0	10357	2486.364869156465	3
0	10362	2486.572826237867	2
0	10368	2487.004414898898	1
0	10376	2488.036053221018	0
0	10388	2489.180799990358	1
0	10389	2489.537414823165	0
0	10403	2493.383048674529	1
0	10405	2494.415839654331	0
0	10419	2497.494607047301	1
0	10421	2497.703186125014	2
0	10422	2499.231707137317	1
0	10427	2499.381145393513	0
0	10434	2499.907944101776	1
0	10437	2500.418448140736	2
0	10438	2500.709872980017	1
0	10443	2500.92660950714	0
0	10464	2503.531310223316	1
0	10465	2503.607366142798	0
0	10532	2527.890554486894	1
0	10533	2528.336318909637	0
0	10549	2532.40312418651	1
0	10552	2532.755259331048	2
0	10554	2536.833373860146	3
0	10555	2536.969626789831	2
0	10560	2537.719367100727	1
0	10565	2537.908166768732	0
0	10572	2539.138838938351	1
0	10578	2540.452397296153	2
0	10580	2541.387638602352	1
0	10586	2541.650360422374	2
0	10587	2542.233565787852	1
0	10594	2546.223072584906	0
0	10636	2557.618520916763	1
0	10637	2557.841519282478	0
0	10676	2568.715667077559	1
0	10678	2569.551447949172	0
0	10720	2578.615381111437	1
0	10724	2579.824828998453	2
0	10725	2580.477931995259	1
0	10731	2581.42686288804	0
0	10810	2602.56652217734	1
0	10811	2603.725772877638	0
0	10834	2608.147352989472	1
0	10835	2608.312121162456	0
0	10841	2608.442899439962	1
0	10842	2609.104995424958	0
0	10900	2621.663192697838	1
0	10902	2622.242063038446	2
0	10905	2624.860294552636	1
0	10910	2625.095018243493	0
0	10916	2625.399310113264	1
0	10919	2626.995288515136	0
0	10925	2627.174227651325	1
0	10928	2628.738323694584	0
0	10944	2632.460975260029	1
0	10945	2632.47140114712	0
0	10958	2635.937839999107	1
0	10962	2636.405189816069	2
0	10965	2639.767887878049	1
0	10970	2639.925032854723	0
0	11013	2648.525470442103	1
0	11015	2649.697054916204	0
0	11026	2653.320977062237	1
0	11029	2653.659439160716	0
0	11058	2659.493154689182	1
0	11059	2659.672601074978	0
0	11081	2669.691430592174	1
0	11086	2671.688236765436	2
0	11087	2671.779097190516	1
0	11093	2672.4280012583	0
0	11118	2679.668684798523	1
0	11121	2683.088598031413	0
0	11138	2686.820264120885	1
0	11139	2687.725172212172	0
0	11239	2713.038821028278	1
0	11240	2713.173166485321	0
0	11287	2724.522390884122	1
0	11289	2725.432210640198	2
0	11290	2725.930844851835	1
0	11296	2727.394924295802	2
0	11298	2730.585169750674	1
0	11305	2731.17392779827	2
0	11306	2731.508598850669	1
0	11312	2732.085520779542	2
0	11313	2732.215130527176	1
0	11320	2733.429857626257	0
0	11352	2744.41772650133	1
0	11354	2746.505730743947	2
0	11355	2748.448203616341	1
0	11360	2749.382256904548	0
0	11427	2762.39161610512	1
0	11428	2763.464302043388	0
0	11436	2763.847519589601	1
0	11439	2764.840339547411	0
0	11456	2767.133904202242	1
0	11458	2767.829848047505	2
0	11460	2769.547305966106	3
0	11464	2771.72828696978	4
0	11465	2773.107331093743	3
0	11470	2773.808048459537	2
0	11475	2774.038866565883	1
0	11480	2774.734156048818	0
0	11495	2780.363380976182	1
0	11497	2780.501853645621	2
0	11498	2780.543651296665	1
0	11503	2781.474796438239	0
0	11507	2782.029168380773	1
0	11511	2782.850433742368	2
0	11513	2783.180008332255	3
0	11514	2783.286329940385	2
0	11524	2789.3130452192	3
0	11526	2789.972792023721	4
0	11531	2792.001288338998	3
0	11535	2795.239658104805	4
0	11538	2796.959492686487	3
0	11544	2798.637949390051	4
0	11552	2801.509976788294	5
0	11553	2801.616124753907	4
0	11559	2802.759042843903	3
0	11564	2803.001779223883	2
0	11569	2804.018737819205	1
0	11573	2804.502646487551	2
0	11576	2805.041142468963	1
0	11582	2805.746001919266	2
0	11585	2806.191048656376	1
0	11590	2806.469431001138	0
0	11596	2810.683156618237	1
0	11602	2811.709746027636	0
0	11619	2812.915955598375	1
0	11622	2815.113599578321	0
0	11652	2822.670439431366	1
0	11659	2825.589588701586	2
0	11661	2827.864795993687	1
0	11668	2828.232228738801	0
0	11698	2833.937101646338	1
0	11704	2837.047792235521	0
0	11719	2839.065697050589	1
0	11723	2841.504325044673	2
0	11725	2842.330154069668	3
0	11726	2842.589819149938	2
0	11731	2842.843365571707	1
0	11738	2843.742031839095	0
0	11755	2848.086588440745	1
0	11760	2849.281601955426	2
0	11761	2849.95271534153	1
0	11769	2850.537730937392	2
0	11771	2850.624978049951	3
0	11773	2850.666603968165	4
0	11775	2850.851722340084	5
0	11777	2853.89516786502	6
0	11778	2854.188231464334	5
0	11785	2856.317024952556	6
0	11787	2856.968735634451	5
0	11793	2857.583915176535	4
0	11798	2858.645064877654	3
0	11804	2859.040733362104	4
0	11810	2861.833457793395	5
0	11812	2862.059800955313	6
0	11814	2862.137433883201	7
0	11815	2862.224172402964	6
0	11822	2862.869653453573	5
0	11827	2865.380082746067	4
0	11833	2866.277863970383	3
0	11838	2866.899257122918	2
0	11847	2870.349502867384	1
0	11853	2870.697906984448	2
0	11854	2870.842099153553	1
0	11867	2877.638482863593	0
0	11871	2878.219235940416	1
0	11873	2878.878404275027	2
0	11875	2879.895045151861	3
0	11877	2880.291416865533	4
0	11882	2880.575624843616	5
0	11884	2880.980839735155	6
0	11885	2881.68594237035	5
0	11891	2881.818235624389	4
0	11898	2882.645345221098	3
0	11902	2882.81013210406	4
0	11904	2885.57243025598	5
0	11907	2889.53828136528	4
0	11912	2889.985761544575	3
0	11916	2890.212483413809	4
0	11918	2890.966183818093	5
0	11930	2898.312876712523	4
0	11936	2898.387226228092	5
0	11938	2898.774208765837	4
0	11943	2898.825472514887	3
0	11950	2902.360694849937	2
0	11958	2903.789956271756	3
0	11959	2905.232893965614	2
0	11964	2906.997612351054	1
0	11975	2911.036784850101	2
0	11978	2911.718528151799	1
0	11983	2911.768759278604	0
0	11996	2913.848071698074	1
0	11997	2914.042820030965	0
0	12034	2919.395800348484	1
0	12036	2920.707603259347	0
0	12056	2926.074795557957	1
0	12060	2927.870605120625	2
0	12062	2928.354003681564	3
0	12063	2928.526120198415	2
0	12070	2929.394177858833	1
0	12075	2929.405188449911	0
0	12101	2932.280206308153	1
0	12102	2933.373144248874	0
0	12117	2936.15119467909	1
0	12123	2938.535876442768	2
0	12130	2942.647709784935	1
0	12136	2946.570746474916	0
0	12147	2947.380934917649	1
0	12148	2947.646258470226	0
0	12154	2947.849421829451	1
0	12156	2948.816073517958	0
0	12162	2949.786518646468	1
0	12165	2951.069844422002	0
0	12182	2954.117652282521	1
0	12183	2954.26356204938	0
0	12192	2955.230665990138	1
0	12196	2955.911084824252	0
0	12205	2957.5460525062	1
0	12210	2958.396443930281	2
0	12212	2959.792451413132	3
0	12213	2960.061226368391	2
0	12218	2960.868112898213	1
0	12224	2964.10685592254	0
0	12236	2964.806110145006	1
0	12239	2965.160756543848	2
0	12240	2966.377496715499	1
0	12246	2968.156213003573	0
0	12259	2969.249527421115	1
0	12262	2970.607457998393	0
0	12268	2970.945661150263	1
0	12270	2972.140101070784	0
0	12281	2972.682159615988	1
0	12282	2972.767789491377	0
0	12301	2974.132364701517	1
0	12307	2977.032147394083	2
0	12309	2977.441070227329	1
0	12317	2978.495881861156	0
0	12347	2981.618918629596	1
0	12351	2983.600831716549	2
0	12353	2983.833895580089	3
0	12354	2987.943828449475	2
0	12360	2988.294651207944	3
0	12364	2989.204438284256	2
0	12369	2989.261669890776	1
0	12374	2989.827845955699	0
0	12389	2991.129558850915	1
0	12392	2992.62858046283	0
0	12399	2993.006083316076	1
0	12400	2993.699267876692	0
0	12411	2994.081875760248	1
0	12413	2994.64377109691	0
0	12419	2995.659493365683	1
0	12421	2995.693658717897	2
0	12422	2996.653513626411	1
0	12428	2997.48461783788	2
0	12430	2997.742366705465	1
0	12437	2999.949120630379	0
0	12441	3000.212670336468	1
0	12445	3000.624576853975	2
0	12448	3001.185918441559	1
0	12457	3002.339410168878	0
0	12489	3012.268541870963	1
0	12492	3013.119588738833	0
0	12498	3013.206587204769	1
0	12499	3013.548983793012	0
0	12517	3017.447748246863	1
0	12519	3017.877343667383	0
0	12535	3019.175961941098	1
0	12540	3019.734197677856	0
0	12547	3021.696489713004	1
0	12549	3022.018947303532	0
0	12560	3023.549060932126	1
0	12561	3025.564516467127	0
0	12570	3027.032602360774	1
0	12577	3028.066872324945	0
0	12589	3031.841994895223	1
0	12592	3032.727268145399	0
0	12652	3046.442116841222	1
0	12653	3046.885552273692	0
0	12685	3055.423776141447	1
0	12686	3055.740111794079	0
0	12718	3060.55863010423	1
0	12719	3062.1266518313	0
0	12725	3062.496533161816	1
0	12728	3062.887603647946	2
0	12734	3064.346302190288	1
0	12741	3067.956447271756	2
0	12743	3068.087422288842	3
0	12749	3069.339503578715	4
0	12750	3069.912711914824	3
0	12755	3071.568971053066	2
0	12762	3072.665271319459	1
0	12767	3072.796878727039	0
0	12799	3077.368013024598	1
0	12801	3077.799272029295	0
0	12809	3079.300247609135	1
0	12810	3079.387355692722	0
0	12845	3084.974765013017	1
0	12847	3085.18750540383	0
0	12881	3096.311863281832	1
0	12882	3096.97918321497	0
0	12908	3101.424479246914	1
0	12911	3102.791317829343	0
0	12923	3106.826574720431	1
0	12928	3108.584494855131	0
0	12937	3108.962058296595	1
0	12941	3110.281904070123	0
0	12947	3110.436753181325	1
0	12950	3111.117870329574	0
0	12959	3115.647211023494	1
0	12966	3117.373818446605	0
0	12973	3117.767775084332	1
0	12975	3118.457905467025	0
0	12981	3119.414985613964	1
0	12984	3121.169256629823	0
0	13020	3128.366103560579	1
0	13021	3128.544574356484	0
0	13030	3131.057619768927	1
0	13031	3131.501917023023	0
0	13045	3134.008317674639	1
0	13046	3134.41640062748	0
0	13070	3136.790584239772	1
0	13072	3137.818756358508	2
0	13078	3138.416401619021	1
0	13083	3139.177272946557	0
0	13094	3140.437929406221	1
0	13098	3141.06491321346	0
0	13121	3146.974870051673	1
0	13122	3146.985086049727	0
0	13151	3151.166012011565	1
0	13152	3151.30550327675	0
0	13210	3175.419833838442	1
0	13212	3176.632036854021	0
0	13236	3181.791711171807	1
0	13238	3182.032677371403	2
0	13239	3183.06732889548	1
0	13244	3183.467344820538	0
0	13275	3188.272707522309	1
0	13277	3188.916672365136	2
0	13278	3190.030395847766	1
0	13284	3191.034330153158	2
0	13285	3191.364302286154	1
0	13290	3192.233730613495	0
0	13312	3202.61912137032	1
0	13314	3202.983772037845	2
0	13315	3203.886446728837	1
0	13322	3204.368556701225	0
0	13353	3212.137037861184	1
0	13355	3212.708182127316	0
0	13475	3241.207329464932	1
0	13477	3241.803950389001	0
0	13484	3242.829708529651	1
0	13487	3245.112639026863	0
0	13493	3245.879245395335	1
0	13498	3246.533855695446	2
0	13499	3246.606141202671	1
0	13505	3246.881403811814	2
0	13508	3248.878962435116	3
0	13509	3249.490205800138	2
0	13514	3250.188683228357	1
0	13520	3250.971242525207	0
0	13526	3251.246601772856	1
0	13530	3251.754644226275	2
0	13531	3252.27488235158	1
0	13536	3252.424773655407	0
0	13554	3256.702682410941	1
0	13555	3257.029766362062	0
0	13568	3260.166160582954	1
0	13569	3260.70068788934	0
0	13593	3266.127818559048	1
0	13595	3266.915692791216	0
0	13607	3268.080078622275	1
0	13609	3269.405803501278	0
0	13616	3271.960212192631	1
0	13619	3272.786387847239	2
0	13620	3273.280907925409	1
0	13625	3273.366176839799	0
0	13635	3276.209183231041	1
0	13637	3276.27881091105	2
0	13638	3277.12994683684	1
0	13643	3277.505550459942	0
0	13657	3278.927432105818	1
0	13658	3279.602733865543	0
0	13664	3280.002713793099	1
0	13667	3281.801932377747	0
0	13687	3284.989325226606	1
0	13688	3285.789665459119	0
0	13694	3285.895487344372	1
0	13695	3286.657484594508	0
0	13710	3291.852231601031	1
0	13713	3292.807464875913	2
0	13714	3293.150380043397	1
0	13719	3293.304150875011	0
0	13736	3296.301489806075	1
0	13738	3296.485176802914	2
0	13741	3296.915402405197	1
0	13746	3297.013923179275	0
0	13752	3297.238744723616	1
0	13753	3298.437041351671	0
0	13804	3314.231495537623	1
0	13806	3314.502970892799	2
0	13811	3315.435287103346	3
0	13812	3315.755568625842	2
0	13818	3316.187790606698	1
0	13826	3316.922020791862	2
0	13828	3318.423650322192	1
0	13837	3318.877035041773	0
0	13845	3319.87687453292	1
0	13847	3320.314572493181	2
0	13848	3321.272524453844	1
0	13853	3322.029968336007	0
0	13878	3327.598851672684	1
0	13881	3329.944767983174	0
0	13890	3330.211767819365	1
0	13893	3330.854357394488	0
0	13912	3332.939438589757	1
0	13913	3333.11836329286	0
0	13919	3333.152009430526	1
0	13920	3333.336737628363	0
0	13929	3333.902062988627	1
0	13930	3334.102344304478	0
0	13936	3336.159490980332	1
0	13937	3336.206701432306	0
0	13958	3340.017049754997	1
0	13959	3340.152957806281	0
0	13976	3341.623007203369	1
0	13978	3342.489193880815	2
0	13981	3343.607329543431	1
0	13988	3344.766021439245	2
0	13991	3345.814407310973	1
0	13996	3346.094853304119	0
0	14033	3356.848442846341	1
0	14038	3359.483161967998	2
0	14039	3360.058198470754	1
0	14045	3360.128429720647	2
0	14052	3361.926517773786	3
0	14053	3362.861628124382	2
0	14058	3363.430469130623	1
0	14063	3363.526879802659	0
0	14070	3364.344023341128	1
0	14071	3364.487744644779	0
0	14189	3388.921163997305	1
0	14190	3389.029169069498	0
0	14205	3392.811153126684	1
0	14206	3394.021801851976	0
0	14220	3394.990808346338	1
0	14221	3395.996555809278	0
0	14227	3396.996468661892	1
0	14229	3397.170396983855	2
0	14234	3398.413961165656	1
0	14240	3398.919480214474	0
0	14247	3399.82715492985	1
0	14248	3400.852801486339	0
0	14290	3409.068667957493	1
0	14291	3409.278555915115	0
0	14302	3411.161813374252	1
0	14303	3411.257463615815	0
0	14310	3412.560414513461	1
0	14311	3413.085242209599	0
0	14346	3423.171600830428	1
0	14347	3423.78981518455	0
0	14362	3426.279678987865	1
0	14364	3428.315639467438	2
0	14365	3428.384082611177	1
0	14372	3428.959816193505	0
0	14393	3439.622067366294	1
0	14396	3440.405451861674	0
0	14403	3441.683433453732	1
0	14405	3441.691760828504	2
0	14406	3442.430790252235	1
0	14412	3443.00316831346	0
0	14443	3455.543729201295	1
0	14444	3456.367392214747	0
0	14485	3459.770153578795	1
0	14486	3460.136556512943	0
0	14527	3472.585814139166	1
0	14529	3472.58610136721	2
0	14530	3472.711702558327	1
0	14535	3472.853984125485	0
0	14558	3475.41725067182	1
0	14562	3477.077374780089	0
0	14582	3483.146937683001	1
0	14584	3484.534344018997	2
0	14586	3486.082762051925	3
0	14587	3486.44214907257	2
0	14594	3487.447972483193	3
0	14596	3487.531551373553	4
0	14598	3488.62374312684	5
0	14600	3489.611796135703	6
0	14601	3489.710052068618	5
0	14610	3491.941289263293	6
0	14612	3492.164941157423	7
0	14613	3492.317565305394	6
0	14619	3493.45288533981	5
0	14630	3494.504088324723	4
0	14637	3495.028326086099	3
0	14643	3496.534629599643	2
0	14649	3497.854870156828	3
0	14651	3498.959896123124	2
0	14657	3499.330785612346	1
0	14665	3500.141522698959	2
0	14666	3500.160299515873	1
0	14671	3500.782660698479	0
0	14679	3501.739035787443	1
0	14680	3503.763911178581	0
0	14686	3504.000566842934	1
0	14687	3504.370529533435	0
0	14708	3508.876371677271	1
0	14709	3508.960771752449	0
0	14721	3511.359129119049	1
0	14724	3514.683059751861	2
0	14725	3516.487916308054	1
0	14731	3516.605858944807	2
0	14732	3517.501331664587	1
0	14738	3517.549488592451	2
0	14740	3518.228569816809	1
0	14747	3519.67162412857	0
0	14754	3523.616581789675	1
0	14757	3524.286134229507	0
0	14763	3524.405936669218	1
0	14764	3525.791691230496	0
0	14812	3543.572932993683	1
0	14817	3545.905492542698	0
0	14828	3546.478609790216	1
0	14832	3548.322378801612	0
0	14871	3559.258874858945	1
0	14872	3559.460905298452	0
0	14893	3564.119007433549	1
0	14895	3565.048871220137	0
0	14906	3567.144555684731	1
0	14911	3568.010812260501	0
0	14923	3569.255757211169	1
0	14925	3569.980815774498	0
0	14931	3570.061095356197	1
0	14935	3571.200728455677	2
0	14937	3571.249347559377	3
0	14939	3571.923218176425	2
0	14944	3572.042224430478	1
0	14949	3572.151648325199	0
0	14961	3574.43339837118	1
0	14964	3575.392451587112	2
0	14966	3575.862139714792	1
0	14971	3575.896625651783	0
0	14984	3576.333663978553	1
0	14988	3579.72428438456	0
0	15018	3588.388976624767	1
0	15025	3591.499289384995	0
0	15036	3593.063967914855	1
0	15041	3594.364470197833	0
0	15068	3602.925211550443	1
0	15069	3605.236350402799	0
0	15107	3620.446230810257	1
0	15110	3624.599788689821	0
0	15135	3630.241045620046	1
0	15138	3630.761878816154	0
0	15156	3637.427701203972	1
0	15158	3638.200436046153	2
0	15160	3638.341205789867	3
0	15166	3639.058508407843	4
0	15170	3640.9766136821	3
0	15178	3641.679553801992	4
0	15180	3643.168329452549	3
0	15186	3643.286102213843	4
0	15187	3644.397381397691	3
0	15195	3646.562674919042	2
0	15201	3647.649528621584	3
0	15204	3648.009670247108	4
0	15205	3648.991683916333	3
0	15210	3649.23631620402	2
0	15215	3649.338240856743	1
0	15221	3650.773862199766	0
0	15227	3650.944808888744	1
0	15234	3653.067642957681	2
0	15235	3653.197070792444	1
0	15243	3653.638714308768	0
0	15260	3655.480234898013	1
0	15261	3655.657618601462	0
0	15267	3656.157640300553	1
0	15269	3658.505716485942	0
0	15279	3660.692364176654	1
0	15282	3661.61410256219	0
0	15295	3663.911996101554	1
0	15298	3664.89155227248	0
0	15307	3666.059970448562	1
0	15310	3667.955040505906	0
0	15317	3668.455718663713	1
0	15318	3669.104742296389	0
0	15334	3673.252180297697	1
0	15338	3674.762220900556	2
0	15343	3676.899308393922	1
0	15353	3678.512451562483	0
0	15383	3684.935986956025	1
0	15385	3685.173119062459	2
0	15386	3685.40646540712	1
0	15392	3686.467672821136	2
0	15393	3687.517117972884	1
0	15399	3688.291934974555	0
0	15412	3689.112590204098	1
0	15415	3689.93691310397	2
0	15416	3690.809297852202	1
0	15423	3691.339894079186	2
0	15424	3691.385965144446	1
0	15429	3691.504662560142	0
0	15437	3692.554461932808	1
0	15439	3693.100577164208	2
0	15441	3693.631902971159	1
0	15446	3694.039654510385	0
0	15464	3701.707745223667	1
0	15466	3702.125381049592	0
0	15487	3711.114617391365	1
0	15488	3711.454278816052	0
0	15532	3725.245767287337	1
0	15533	3725.495458450874	0
0	15545	3728.371598012109	1
0	15547	3728.576414964298	0
0	15553	3728.713476178722	1
0	15554	3730.182111602806	0
0	15565	3730.328467312234	1
0	15567	3730.379082359139	2
0	15568	3731.169029192308	1
0	15575	3731.998637392111	2
0	15578	3733.834858304289	1
0	15589	3734.505191375523	0
0	15595	3734.953192359553	1
0	15597	3735.248268702656	2
0	15601	3736.055385602215	3
0	15602	3736.824073398992	2
0	15609	3737.202345863487	3
0	15610	3737.560322161722	2
0	15616	3737.643735971633	3
0	15617	3738.184124475282	2
0	15625	3740.034630386218	1
0	15630	3741.376973186436	0
0	15634	3742.028777946224	1
0	15636	3742.057283520378	2
0	15640	3742.338013024121	3
0	15644	3743.062649969896	4
0	15645	3744.750478235418	3
0	15650	3745.95190005744	2
0	15656	3746.882548920256	1
0	15661	3747.562359396346	0
0	15665	3748.701477548743	1
0	15667	3750.904228757062	2
0	15669	3751.432209880311	3
0	15674	3752.195524585716	4
0	15678	3753.123002808668	3
0	15683	3753.914287105426	2
0	15689	3754.70238354324	1
0	15697	3756.37326104038	0
0	15706	3757.215667943996	1
0	15709	3759.000065063436	0
0	15730	3759.522664064266	1
0	15732	3760.684207697691	0
0	15802	3780.429593227767	1
0	15803	3780.557203780244	0
0	15809	3780.934248366258	1
0	15810	3781.649374628242	0
0	15844	3792.418193174974	1
0	15845	3793.429278669404	0
0	15851	3793.748598232552	1
0	15852	3794.212216869198	0
0	15858	3794.80170625393	1
0	15860	3796.836808662607	0
0	15897	3804.966315083665	1
0	15898	3805.70853056377	0
0	15930	3812.327648393163	1
0	15932	3813.155385028967	2
0	15935	3818.144673185136	1
0	15940	3819.07594102069	0
0	15964	3825.604427073533	1
0	15966	3826.196355119451	2
0	15967	3826.219861598709	1
0	15972	3826.306022701084	0
0	16016	3840.955909856012	1
0	16017	3842.69525010874	0
0	16023	3843.442637632069	1
0	16026	3844.471409250395	0
0	16128	3871.88659631739	1
0	16130	3872.783806201341	0
0	16164	3884.244159955702	1
0	16167	3886.126908673405	0
0	16179	3888.450266834022	1
0	16183	3888.715739967163	2
0	16188	3890.821755220512	1
0	16193	3891.59798438201	0
0	16210	3894.204415594668	1
0	16214	3896.524406334964	2
0	16216	3896.649204192661	3
0	16220	3898.77270316267	4
0	16224	3899.836050384206	5
0	16226	3901.292931100007	4
0	16231	3901.724885170049	3
0	16237	3902.536011176198	4
0	16240	3905.240885918612	3
0	16247	3905.862307110427	4
0	16249	3906.973434149197	5
0	16250	3907.594618158489	4
0	16255	3908.28540784655	3
0	16260	3908.302197269454	2
0	16266	3909.024599317935	3
0	16268	3909.214880342883	4
0	16269	3909.291420046265	3
0	16276	3909.642479921175	2
0	16282	3910.531826349611	3
0	16287	3912.662142763588	2
0	16292	3913.406401528422	1
0	16298	3913.981566654371	2
0	16299	3914.505573356756	1
0	16305	3915.894878111234	2
0	16306	3916.318230961203	1
0	16312	3916.691361446553	2
0	16314	3918.232960038928	3
0	16315	3918.945052738334	2
0	16320	3919.423020990567	1
0	16324	3920.201797724279	2
0	16334	3925.474134347046	1
0	16339	3925.54272008246	0
0	16350	3927.483104541422	1
0	16351	3927.850573900857	0
0	16365	3930.729268237714	1
0	16366	3931.916418561946	0
0	16385	3934.772266469846	1
0	16387	3935.042162368291	2
0	16390	3937.830686390319	1
0	16398	3938.341148262645	0
0	16404	3938.513947431791	1
0	16406	3939.206986886578	0
0	16419	3940.185338392094	1
0	16422	3941.26641404836	2
0	16426	3942.626037864804	1
0	16431	3942.726172085442	0
0	16467	3951.254493101537	1
0	16469	3953.924412270856	0
0	16634	4007.854693205325	1
0	16640	4009.345710787163	2
0	16643	4009.78436590561	1
0	16649	4012.060481440221	0
0	16655	4012.884910275564	1
0	16657	4013.162375786691	0
0	16667	4014.310080215326	1
0	16668	4016.831445676431	0
0	16681	4018.056933431047	1
0	16682	4019.39259758436	0
0	16707	4022.591410640468	1
0	16710	4023.540732326279	0
0	16719	4024.443443149814	1
0	16721	4024.531613403862	2
0	16724	4024.854288762579	1
0	16729	4025.487346788308	0
0	16743	4026.816594331947	1
0	16744	4027.020034847527	0
0	16755	4028.837475921855	1
0	16760	4031.062012347313	0
0	16778	4036.969313035322	1
0	16779	4037.005450397736	0
0	16840	4059.815023726104	1
0	16841	4059.818880549098	0
0	16928	4077.606198445081	1
0	16929	4078.681368807288	0
0	16935	4079.495238020516	1
0	16936	4080.762124434571	0
0	16959	4082.444975816778	1
0	16961	4083.032466185863	0
0	16983	4092.384744540119	1
0	16984	4092.490005807588	0
0	17032	4105.458592820364	1
0	17035	4108.444431825429	0
0	17042	4108.705606325543	1
0	17044	4112.748365194655	2
0	17045	4114.579379083136	1
0	17050	4115.510684574302	0
0	17064	4118.402022286603	1
0	17066	4119.100693824571	2
0	17068	4119.82171511143	3
0	17069	4122.549229062417	2
0	17076	4123.521531526897	3
0	17077	4123.874225769336	2
0	17083	4125.371874777206	1
0	17088	4125.806153643444	0
0	17101	4126.798025045197	1
0	17104	4128.141755546979	2
0	17108	4130.382768000475	3
0	17109	4130.432109018882	2
0	17118	4130.687860570172	3
0	17119	4131.206777169189	2
0	17125	4131.433204844817	1
0	17131	4132.391856309364	0
0	17137	4133.827630486843	1
0	17139	4136.272567529306	2
0	17140	4136.515423416874	1
0	17145	4136.848224575353	0
0	17152	4137.819020057876	1
0	17153	4137.987273324236	0
0	17225	4154.76218444854	1
0	17226	4154.906531298113	0
0	17253	4158.722700931737	1
0	17256	4159.176911209886	0
0	17280	4164.151223441091	1
0	17282	4164.226054292375	2
0	17284	4164.356961810411	1
0	17289	4165.200353416303	0
0	17295	4165.391013201544	1
0	17298	4167.472988118249	2
0	17299	4168.126263145618	1
0	17306	4170.485678423443	0
0	17348	4178.82624108356	1
0	17354	4181.018224713544	2
0	17355	4181.082729834375	1
0	17360	4181.238751517622	0
0	17367	4182.61177452628	1
0	17368	4182.729395764209	0
0	17380	4183.850555469298	1
0	17384	4185.876435813445	0
0	17390	4187.155654101471	1
0	17391	4187.321415213348	0
0	17422	4191.787724311221	1
0	17427	4194.483304541308	0
0	17451	4196.725336457836	1
0	17452	4196.951345894214	0
0	17478	4200.994945381248	1
0	17481	4203.312643718054	0
0	17498	4205.063477665604	1
0	17502	4206.457934056139	2
0	17503	4207.319860143879	1
0	17508	4207.330395009584	0
0	17521	4210.032788225246	1
0	17522	4211.077759412082	0
0	17548	4216.546436707874	1
0	17549	4217.155277958893	0
0	17584	4232.579359615382	1
0	17586	4232.613471697149	2
0	17590	4232.956970606652	3
0	17592	4234.541177348215	2
0	17597	4235.462157138085	1
0	17604	4236.165620337995	0
0	17718	4273.854887735573	1
0	17719	4274.827686978501	0
0	17790	4296.17221340912	1
0	17793	4296.895153471845	0
0	17808	4300.374038663553	1
0	17811	4301.74302741496	0
0	17842	4307.476801256266	1
0	17845	4308.353022176066	0
0	17851	4308.769580352001	1
0	17853	4309.176935535087	0
0	17884	4315.959490662724	1
0	17886	4316.121570689503	2
0	17888	4316.615395200272	3
0	17890	4317.374790564665	4
0	17894	4317.724571720729	5
0	17895	4318.685801148681	4
0	17901	4318.789716490867	5
0	17902	4318.846165844087	4
0	17909	4320.96714323893	3
0	17916	4321.088030233973	4
0	17917	4322.006918381492	3
0	17925	4323.531276915071	2
0	17933	4324.453551440794	3
0	17935	4325.916210944173	2
0	17942	4326.212969509955	1
0	17952	4328.040836533262	2
0	17953	4329.807147149856	1
0	17961	4330.681681354725	2
0	17963	4330.949666591182	1
0	17968	4331.266432418855	0
0	17977	4333.158796987532	1
0	17979	4333.223628608868	2
0	17983	4333.904014372574	1
0	17990	4335.33876962444	0
0	18013	4339.485506183967	1
0	18018	4343.552131263071	2
0	18020	4345.371018625955	3
0	18023	4346.709346455698	2
0	18030	4346.793920758644	3
0	18032	4346.808591332226	4
0	18037	4347.307851771774	5
0	18038	4347.520049894404	4
0	18044	4347.99310328692	3
0	18050	4348.874348200582	2
0	18055	4349.102527630175	1
0	18061	4349.785357687205	0
0	18084	4355.650134765081	1
0	18088	4356.898633985392	0
0	18103	4358.756353274737	1
0	18106	4360.963641040761	0
0	18121	4363.097819029317	1
0	18124	4364.634893738712	0
0	18148	4371.808687402689	1
0	18153	4374.203587722958	0
0	18168	4376.415108804042	1
0	18172	4378.659412777952	0
0	18222	4397.604889726296	1
0	18223	4398.150199039078	0
0	18245	4402.01854568236	1
0	18246	4402.224383194874	0
0	18263	4404.748008070003	1
0	18264	4406.17367547126	0
0	18316	4419.643625497188	1
0	18317	4420.213693221149	0
0	18334	4424.317688394547	1
0	18336	4424.862513057064	2
0	18340	4426.546271565106	3
0	18342	4426.848740742072	4
0	18343	4426.8828104212	3
0	18349	4428.595527203277	2
0	18354	4429.465135733501	1
0	18361	4429.963832848417	0
0	18378	4432.602090718367	1
0	18380	4432.911978824983	0
0	18426	4442.366591328632	1
0	18428	4443.664840460246	0
0	18434	4444.895292585048	1
0	18436	4445.762501387183	2
0	18437	4446.176071999037	1
0	18442	4446.341366599295	0
0	18456	4448.486968515439	1
0	18460	4449.270521479771	0
0	18469	4450.036177623492	1
0	18470	4450.049067762052	0
0	18477	4451.479657801322	1
0	18478	4451.538030316421	0
0	18486	4454.428622831327	1
0	18494	4456.43209393328	2
0	18496	4456.801350597265	3
0	18497	4456.919198128233	2
0	18502	4456.960008858424	1
0	18507	4457.136572542177	0
0	18531	4463.967553975073	1
0	18533	4464.732214253475	2
0	18535	4466.399538595268	1
0	18541	4467.663872004066	2
0	18542	4467.665655546051	1
0	18553	4470.030829343129	0
0	18565	4471.244928500532	1
0	18570	4472.779557861745	2
0	18573	4473.5276716998	1
0	18578	4473.770643545899	0
0	18591	4474.825912879204	1
0	18593	4476.987754381512	2
0	18594	4478.153701727216	1
0	18600	4478.281846071833	2
0	18602	4479.289252374406	3
0	18606	4480.127142291477	4
0	18607	4480.237252411796	3
0	18612	4480.978318779693	2
0	18620	4483.064130942801	1
0	18626	4483.317281552719	2
0	18629	4483.806076749022	1
0	18636	4485.056531527687	2
0	18638	4485.525067328261	3
0	18642	4486.54251992524	2
0	18648	4487.840484700896	1
0	18653	4487.889600820958	0
0	18677	4490.451696350058	1
0	18679	4491.251875091528	2
0	18681	4491.296667145859	3
0	18687	4493.646054856901	2
0	18692	4493.779267123891	1
0	18698	4494.535106933324	2
0	18699	4495.190837683128	1
0	18704	4495.666011621963	0
0	18724	4497.735788743559	1
0	18725	4497.894915499658	0
0	18759	4503.245730977963	1
0	18760	4503.545549879669	0
0	18798	4514.330031873794	1
0	18800	4515.700234849588	0
0	18817	4516.43841841721	1
0	18818	4516.442088289879	0
0	18830	4517.956771762196	1
0	18832	4519.096015842843	0
0	18838	4519.666278237952	1
0	18843	4521.846775480852	0
0	18849	4522.108705324431	1
0	18851	4522.757908677107	2
0	18852	4523.236253965899	1
0	18863	4524.524869274014	0
0	18874	4524.94306977208	1
0	18876	4526.845918121745	0
0	18892	4528.759892596265	1
0	18894	4530.039302924109	2
0	18898	4530.283034687009	3
0	18899	4530.54293106185	2
0	18905	4532.559464943742	1
0	18911	4534.644130145548	0
0	18923	4536.150672331421	1
0	18928	4538.088703319391	0
0	18953	4544.68139452216	1
0	18955	4545.22762094612	2
0	18956	4545.396406732474	1
0	18962	4546.258075769542	2
0	18964	4546.971499316763	1
0	18970	4547.143305117869	2
0	18977	4549.875518069115	1
0	18982	4549.964965069011	0
0	19014	4555.716075043148	1
0	19015	4555.803609113128	0
0	19035	4560.523115544749	1
0	19038	4562.542933157371	0
0	19052	4565.216762657328	1
0	19053	4565.893378029641	0
0	19064	4566.543219219478	1
0	19067	4566.968696914948	0
0	19073	4567.669431888101	1
0	19077	4568.139399891486	2
0	19083	4572.089210731174	1
0	19096	4576.25679374665	2
0	19097	4576.369566052891	1
0	19103	4577.042703505522	0
0	19117	4580.115775271286	1
0	19118	4580.169676673066	0
0	19140	4584.163929275997	1
0	19141	4585.07417365455	0
0	19162	4593.829301666929	1
0	19163	4593.916933558974	0
0	19170	4595.268842735044	1
0	19173	4596.069324395537	2
0	19174	4596.139848363944	1
0	19179	4596.297431082462	0
0	19210	4599.171385826372	1
0	19215	4600.462752975188	2
0	19216	4600.816148134928	1
0	19223	4601.411378834667	2
0	19224	4601.60570484541	1
0	19233	4602.451092187976	2
0	19235	4602.928432432761	1
0	19241	4603.518383005701	2
0	19244	4603.682061577727	3
0	19245	4604.826794458054	2
0	19251	4604.829054873053	3
0	19252	4605.265019543962	2
0	19258	4605.345939217879	3
0	19259	4605.374439651491	2
0	19265	4605.816082492442	1
0	19271	4606.528512876121	0
0	19279	4607.483605607532	1
0	19281	4608.060916361733	2
0	19282	4608.408796028856	1
0	19290	4610.482181736056	2
0	19291	4612.501732726047	1
0	19296	4613.12846528695	0
0	19300	4613.364403589218	1
0	19305	4616.766259754397	2
0	19306	4617.830589858836	1
0	19312	4617.968453228498	2
0	19313	4618.015254074251	1
0	19322	4619.717520144661	2
0	19324	4619.915620169604	3
0	19329	4620.645520323057	4
0	19330	4620.969814628464	3
0	19335	4621.388045499688	2
0	19342	4623.584202054895	1
0	19347	4623.607279000759	0
0	19358	4624.802655397684	1
0	19361	4625.954066790613	2
0	19368	4634.02263697788	3
0	19369	4634.46053195629	2
0	19374	4634.670798641575	1
0	19384	4636.201303052262	2
0	19390	4637.709573319979	1
0	19395	4637.953804507457	0
0	19414	4640.511146678162	1
0	19417	4641.586546576956	2
0	19421	4642.337377748947	1
0	19427	4642.518467381915	2
0	19431	4642.928782495142	3
0	19432	4643.379540037673	2
0	19438	4644.262282727419	1
0	19448	4645.181987513821	2
0	19453	4648.450058059303	1
0	19459	4648.458853506173	2
0	19461	4649.210649795857	1
0	19468	4652.553991500364	0
0	19474	4652.661905495509	1
0	19476	4653.035491287475	2
0	19478	4653.829779170472	1
0	19483	4653.871799709067	0
0	19520	4660.235754090468	1
0	19527	4663.00483507743	0
0	19543	4664.344475610592	1
0	19545	4667.472781936447	2
0	19547	4668.328603951743	3
0	19549	4668.446490237255	4
0	19553	4669.7053975997	5
0	19556	4672.949561247019	4
0	19561	4673.275480001595	3
0	19568	4675.050317632322	2
0	19573	4675.271406172889	1
0	19578	4676.489263639828	0
0	19591	4678.528631082578	1
0	19600	4682.02877790938	0
0	19610	4682.93108174959	1
0	19613	4684.109011898378	0
0	19637	4688.068764897874	1
0	19638	4688.30343050436	0
0	19652	4690.985459046659	1
0	19653	4691.469568293376	0
0	19662	4692.695564809736	1
0	19669	4694.420385364714	2
0	19670	4696.276129524195	1
0	19675	4696.770279031661	0
0	19706	4705.472808152708	1
0	19708	4705.782811356858	2
0	19711	4710.28974136299	1
0	19716	4711.069528561723	0
0	19727	4716.066307770523	1
0	19728	4717.334498675501	0
0	19748	4721.093714964172	1
0	19749	4721.450363646362	0
0	19778	4728.083464668023	1
0	19781	4728.412516917979	0
0	19804	4734.94197881384	1
0	19807	4736.908211280493	0
0	19813	4737.233759588269	1
0	19815	4737.341479872924	2
0	19816	4737.663880897694	1
0	19821	4738.203593014439	0
0	19838	4743.187758097859	1
0	19840	4744.220876404595	2
0	19842	4744.379271086208	3
0	19845	4747.979666204559	2
0	19851	4748.376671586796	1
0	19857	4748.865411621359	0
0	19883	4754.6800015348	1
0	19884	4754.973539248688	0
0	19891	4755.269022962473	1
0	19892	4755.290498915784	0
0	19918	4763.13624109053	1
0	19920	4764.942519911973	2
0	19922	4765.829045560437	3
0	19923	4767.355376515539	2
0	19929	4767.549598460227	1
0	19935	4768.876153266139	0
0	19942	4769.164387367135	1
0	19944	4769.689220397953	2
0	19945	4771.002526355605	1
0	19950	4771.969104240504	0
0	19992	4778.177617087552	1
0	19993	4778.570030965819	0
0	20021	4787.415730362869	1
0	20024	4789.371906770463	0
0	20040	4791.951224025902	1
0	20044	4792.150006808578	2
0	20045	4793.436716511054	1
0	20050	4794.693518861877	0
0	20056	4794.800223736609	1
0	20058	4795.010037653441	0
0	20067	4797.376142311649	1
0	20068	4798.941144558832	0
0	20096	4802.217677604319	1
0	20099	4804.522338408629	0
0	20116	4806.556171023381	1
0	20120	4808.259860615466	2
0	20122	4808.78259868517	3
0	20124	4810.133526411378	2
0	20134	4811.240396463856	3
0	20136	4811.917366620966	4
0	20139	4812.812753819381	3
0	20144	4812.863625101511	2
0	20149	4813.01339296421	1
0	20158	4814.61876078444	2
0	20159	4815.141263266217	1
0	20165	4815.252453542877	2
0	20166	4815.606775933972	1
0	20171	4816.065020931018	0
0	20185	4817.676889029411	1
0	20186	4817.763107903583	0
0	20205	4821.343580690427	1
0	20206	4821.456501573385	0
0	20275	4830.522845472216	1
0	20276	4830.710642358583	0
0	20287	4831.891982120022	1
0	20289	4832.738446430188	2
0	20293	4833.8099972624	3
0	20296	4834.780554424231	2
0	20302	4835.218527071408	3
0	20303	4835.608630067094	2
0	20309	4835.637966765164	3
0	20310	4835.761151923105	2
0	20317	4837.494336365262	3
0	20318	4838.318972247893	2
0	20323	4839.383583198594	1
0	20327	4840.163339148159	2
0	20329	4842.224109799735	3
0	20332	4842.635010332597	2
0	20337	4843.177220095538	1
0	20341	4844.068582276844	2
0	20343	4845.002314843444	3
0	20346	4847.987579027183	2
0	20352	4850.405217531535	1
0	20358	4851.583428360597	0
0	20399	4859.626875338106	1
0	20400	4859.882276876877	0
0	20430	4864.018043222546	1
0	20431	4864.556086437259	0
0	20444	4865.415379051854	1
0	20445	4865.495263626638	0
0	20477	4876.817917821	1
0	20478	4877.306440902066	0
0	20484	4877.422925470966	1
0	20486	4877.538351323164	0
0	20507	4881.966205735657	1
0	20508	4882.439155431245	0
0	20532	4886.795483304251	1
0	20533	4887.827619418728	0
0	20542	4890.300509322257	1
0	20544	4890.371088159437	2
0	20546	4890.570511056955	1
0	20551	4891.896087304199	0
0	20557	4892.302909631861	1
0	20562	4893.139330923169	2
0	20565	4895.326549749706	1
0	20570	4895.597080257957	0
0	20581	4896.632521714134	1
0	20584	4897.34108286495	2
0	20585	4897.625999455428	1
0	20590	4897.672642203479	0
0	20596	4897.711371263023	1
0	20597	4898.890658581566	0
0	20676	4915.885526377395	1
0	20677	4916.761796308812	0
0	20691	4919.22355272546	1
0	20692	4920.024833336456	0
0	20714	4923.301506994867	1
0	20715	4923.343449741946	0
0	20738	4927.092654743679	1
0	20739	4927.265894379787	0
0	20756	4928.352925124254	1
0	20757	4928.621632962431	0
0	20766	4929.707645596919	1
0	20770	4931.244899730635	0
0	20824	4945.302847112209	1
0	20825	4946.589456830096	0
0	20841	4951.208944240355	1
0	20842	4952.51543740091	0
0	20857	4958.568665208371	1
0	20860	4959.050173236042	2
0	20861	4959.182733499279	1
0	20866	4959.431954552115	0
0	20913	4971.621884399811	1
0	20916	4972.766855115994	0
0	20928	4973.438474328005	1
0	20929	4974.305644124217	0
0	20984	4984.618547985858	1
0	20985	4984.862342924212	0
0	20992	4985.990038833362	1
0	20996	4988.136192164197	0
0	21002	4988.377119248309	1
0	21004	4988.734403142486	2
0	21007	4989.032293646935	1
0	21014	4989.387109052925	2
0	21015	4989.520968116503	1
0	21022	4990.585695955844	0
0	21049	4995.873765552475	1
0	21051	4996.228118755419	2
0	21053	4996.307945094067	3
0	21054	4996.706997347426	2
0	21066	5000.44491699421	1
0	21071	5001.851810279241	0
0	21079	5003.198708889944	1
0	21080	5003.562986879398	0
0	21096	5003.858373649693	1
0	21102	5004.434195858241	2
0	21103	5004.937186781706	1
0	21112	5006.978319883459	2
0	21114	5007.288285248123	3
0	21118	5007.903392048743	4
0	21119	5008.276062827355	3
0	21125	5008.501083679717	4
0	21126	5008.638448869233	3
0	21133	5010.427881088942	4
0	21134	5010.769114845978	3
0	21140	5011.063057085259	4
0	21141	5011.427130928342	3
0	21146	5011.484734458942	2
0	21151	5014.160595696786	1
0	21155	5014.205871149455	2
0	21157	5014.505440525295	3
0	21159	5015.276903400822	4
0	21163	5016.390949796009	3
0	21169	5019.001575460965	2
0	21175	5019.165519038418	3
0	21178	5019.754587972731	2
0	21184	5020.638208955728	3
0	21187	5022.379991427385	2
0	21193	5023.055451671329	3
0	21195	5023.093541471302	4
0	21199	5023.620677800757	5
0	21200	5023.719847331442	4
0	21205	5023.779960365882	3
0	21210	5023.96017890541	2
0	21214	5024.982302794491	3
0	21220	5029.346832635453	2
0	21227	5032.528217702697	1
0	21234	5032.86079989129	2
0	21235	5035.969080229884	1
0	21240	5036.052025254395	0
0	21269	5040.12106246008	1
0	21270	5040.272503649789	0
0	21281	5040.641676799596	1
0	21282	5041.111114535134	0
0	21291	5041.73344706275	1
0	21296	5045.030258693125	0
0	21316	5047.926718191992	1
0	21319	5048.573057394531	0
0	21331	5049.969301530431	1
0	21332	5050.119503055427	0
0	21338	5050.27990956505	1
0	21339	5050.699553280385	0
0	21436	5073.522866982916	1
0	21437	5074.056876905898	0
0	21468	5079.287339103404	1
0	21469	5081.981475446279	0
0	21499	5085.840821650301	1
0	21501	5086.64831903284	2
0	21503	5086.983014085954	3
0	21504	5087.045099386514	2
0	21509	5087.30458103502	1
0	21514	5087.625867139053	0
0	21529	5088.333034677366	1
0	21533	5088.939798759325	2
0	21535	5088.955071635235	3
0	21543	5097.597139153943	2
0	21547	5098.201659554955	3
0	21551	5099.034381174802	4
0	21559	5101.509699996449	5
0	21563	5103.348627485625	4
0	21567	5103.729600753392	5
0	21571	5105.061590113422	4
0	21575	5105.407189020062	5
0	21579	5106.343602439243	4
0	21587	5107.212410010642	3
0	21593	5107.771654884019	2
0	21600	5108.116877575845	1
0	21612	5111.218828610758	0
0	21623	5111.709117676051	1
0	21626	5111.899421304849	2
0	21628	5111.932856791816	3
0	21631	5113.617770511861	2
0	21636	5114.002286844139	1
0	21641	5115.392873578775	0
0	21671	5119.638359435104	1
0	21673	5121.373048664964	2
0	21674	5121.775837543635	1
0	21681	5122.570080816232	2
0	21682	5123.025351376154	1
0	21688	5123.209241720903	0
0	21695	5124.80804461401	1
0	21696	5125.818497237257	0
0	21720	5130.521302042369	1
0	21722	5131.658210781609	2
0	21724	5131.915663152236	3
0	21726	5132.829036882599	4
0	21730	5134.379978829537	5
0	21731	5137.016301281577	4
0	21736	5137.552410363355	3
0	21743	5137.797608301186	2
0	21749	5137.85462527062	3
0	21750	5138.07172734832	2
0	21757	5139.410762280928	1
0	21762	5139.725000551382	0
0	21774	5142.387722932333	1
0	21780	5143.812037578464	2
0	21781	5144.636275679816	1
0	21786	5145.796842833365	0
0	21790	5146.96956203725	1
0	21792	5147.289306949489	2
0	21796	5147.866322198842	3
0	21799	5149.551037638408	4
0	21801	5150.185953376083	3
0	21812	5151.723912420286	2
0	21818	5154.005572242144	3
0	21821	5155.224155282961	2
0	21825	5155.308857993366	3
0	21827	5157.280030958094	4
0	21831	5158.996946986452	5
0	21832	5159.073151865526	4
0	21836	5160.098300920257	5
0	21838	5160.306592054337	6
0	21843	5161.892151873248	5
0	21847	5162.298571666929	6
0	21852	5163.196849936508	5
0	21858	5164.071327333738	6
0	21861	5165.043480250731	5
0	21865	5166.457717411566	6
0	21867	5167.337646728532	7
0	21871	5167.773446484594	8
0	21873	5167.775715022685	9
0	21877	5170.087396435117	8
0	21887	5174.627429774395	7
0	21892	5176.315844918616	6
0	21902	5179.713562052465	5
0	21907	5180.254229301978	4
0	21912	5184.254589181166	3
0	21918	5185.062823338537	2
0	21924	5185.638568717167	1
0	21929	5186.611810051107	0
0	21941	5188.152616232959	1
0	21944	5189.937228762274	0
0	21964	5191.814035251193	1
0	21965	5193.164429697918	0
0	21989	5196.278978998898	1
0	21990	5196.438533517268	0
0	22002	5199.862445584415	1
0	22005	5202.165227925647	0
0	22017	5203.679214051629	1
0	22018	5203.870461899552	0
0	22024	5204.37451887768	1
0	22025	5205.416123564449	0
0	22032	5206.135062620722	1
0	22035	5206.885419793061	2
0	22037	5207.131502246745	3
0	22039	5207.658671363171	2
0	22045	5207.991485386644	3
0	22047	5209.136227539288	4
0	22048	5209.183423604233	3
0	22054	5210.318285464018	4
0	22056	5210.98161584756	5
0	22058	5211.592298567228	6
0	22059	5213.810946357871	5
0	22065	5214.660042878753	6
0	22068	5214.911873664033	7
0	22074	5218.285374193392	6
0	22082	5219.318337419983	5
0	22088	5220.321631909957	6
0	22089	5221.092286001719	5
0	22094	5221.253596647763	4
0	22102	5223.632569680325	3
0	22107	5224.049896545489	2
0	22113	5224.147314549079	3
0	22114	5224.235093252448	2
0	22119	5225.423024331896	1
0	22125	5227.799514024604	0
0	22147	5229.590802717171	1
0	22149	5229.615454465469	2
0	22151	5230.309514820728	3
0	22153	5230.507507216154	2
0	22161	5231.795547587168	1
0	22167	5232.129122483167	0
0	22173	5232.327307297054	1
0	22175	5233.321039455839	0
0	22207	5236.668871707989	1
0	22210	5236.830044316111	0
0	22218	5237.727861755684	1
0	22220	5238.521275734161	0
0	22227	5238.713997966019	1
0	22232	5240.38566062	0
0	22257	5243.155235387246	1
0	22263	5245.063750523857	2
0	22266	5247.91676208804	1
0	22271	5248.437937252099	0
0	22300	5251.206488248539	1
0	22302	5252.226589109421	2
0	22303	5252.777155254509	1
0	22312	5254.946145364529	2
0	22314	5255.915704992323	3
0	22315	5256.20713443927	2
0	22321	5256.550217698851	3
0	22323	5256.581190949051	4
0	22326	5257.739198198314	3
0	22332	5258.782496085946	2
0	22338	5259.931414360834	3
0	22339	5260.504729996551	2
0	22348	5262.862847291671	1
0	22354	5263.750371188951	0
0	22383	5267.422701408189	1
0	22384	5267.557952862287	0
0	22410	5271.9919589617	1
0	22411	5272.035071682374	0
0	22424	5274.871798886549	1
0	22430	5277.177506392715	0
0	22453	5282.833472486691	1
0	22454	5283.960992562114	0
0	22468	5286.997365420604	1
0	22471	5287.756748938759	0
0	22486	5292.837630616492	1
0	22488	5293.763143587024	2
0	22495	5300.867763137466	1
0	22504	5305.380581857487	2
0	22507	5307.189198244222	1
0	22513	5310.818935078704	0
0	22537	5312.978958140683	1
0	22539	5313.13797853826	2
0	22543	5315.614510683697	1
0	22551	5316.887331924135	2
0	22552	5317.030760814691	1
0	22558	5317.615390934039	0
0	22576	5319.639347857926	1
0	22577	5320.670285930202	0
0	22586	5322.499201328065	1
0	22588	5323.408396488499	2
0	22589	5323.795353734688	1
0	22597	5325.635917680188	0
0	22607	5327.525894832297	1
0	22612	5329.410939950116	0
0	22648	5335.578954543361	1
0	22649	5337.543288535645	0
0	22655	5337.762794037841	1
0	22657	5339.447737913783	2
0	22659	5339.705394579024	1
0	22665	5340.767517955624	0
0	22671	5341.006650103032	1
0	22673	5341.25989847832	2
0	22674	5341.264846966073	1
0	22683	5343.058204849964	2
0	22688	5345.982493798169	1
0	22694	5346.76046471617	0
0	22713	5348.556063553163	1
0	22715	5348.702248353881	2
0	22720	5353.055794811091	1
0	22726	5353.553425684733	0
0	22732	5354.008808209697	1
0	22734	5354.260989834722	0
0	22753	5361.458557890081	1
0	22754	5361.878358402663	0
0	22798	5377.637830514291	1
0	22799	5378.645868603247	0
0	22866	5398.538191379777	1
0	22867	5399.196787884862	0
0	22887	5405.549528218335	1
0	22891	5406.632967084362	2
0	22894	5407.729725673479	1
0	22899	5407.805810297804	0
0	22908	5409.061656410296	1
0	22909	5409.765714152356	0
0	22924	5410.964496749369	1
0	22926	5411.052771150583	2
0	22928	5411.136529577493	3
0	22930	5411.573595584075	2
0	22935	5411.631344689457	1
0	22941	5411.663704678747	2
0	22942	5411.704205696885	1
0	22948	5412.145357817604	2
0	22950	5412.755712439542	1
0	22956	5413.738771721403	0
0	22969	5415.006973489638	1
0	22970	5415.596393167472	0
0	22986	5417.527108515734	1
0	22988	5418.783771393685	0
0	23026	5428.759378365368	1
0	23027	5428.858673193289	0
0	23058	5438.490524061436	1
0	23059	5438.670984861851	0
0	23106	5452.103364829704	1
0	23107	5452.515239117573	0
0	23113	5452.640719919458	1
0	23114	5452.997383220249	0
0	23129	5456.866187559061	1
0	23130	5457.635540218568	0
0	23159	5461.847355468512	1
0	23161	5462.661975608004	0
0	23240	5488.373168341874	1
0	23243	5488.922071383753	2
0	23245	5489.100883537387	3
0	23247	5489.321868931631	4
0	23249	5490.683671775288	3
0	23254	5491.380070884196	2
0	23259	5492.65190252208	1
0	23266	5492.687015976873	2
0	23269	5493.570531035704	1
0	23275	5494.669818824336	0
0	23289	5496.673533821723	1
0	23293	5497.315146200619	2
0	23294	5497.540772117884	1
0	23300	5498.150642342103	2
0	23301	5498.301683204557	1
0	23308	5499.22444955337	2
0	23309	5499.829031759104	1
0	23314	5500.058227708735	0
0	23345	5503.802845702224	1
0	23347	5503.808716321624	2
0	23348	5504.039231570543	1
0	23356	5505.280915571112	0
0	23367	5506.073881780387	1
0	23369	5506.496061448863	0
0	23377	5507.426806612873	1
0	23378	5507.466344622766	0
0	23384	5508.682163992329	1
0	23387	5509.532767507826	2
0	23388	5509.609032693626	1
0	23392	5510.202325406821	2
0	23394	5511.435723879583	3
0	23400	5514.370369974574	2
0	23408	5515.851942614024	3
0	23409	5516.472373681174	2
0	23414	5517.235557074558	1
0	23419	5518.724465629492	0
0	23435	5522.712050760353	1
0	23436	5522.951607609536	0
0	23486	5534.408949410143	1
0	23491	5535.728711420817	2
0	23492	5535.775063417738	1
0	23497	5536.668959673451	0
0	23529	5543.033312463735	1
0	23530	5544.053555317702	0
0	23536	5544.105003954248	1
0	23539	5544.654356369302	0
0	23569	5548.966454006111	1
0	23570	5550.236283820746	0
0	23634	5567.655572582383	1
0	23640	5570.988662446972	0
0	23660	5574.206230554073	1
0	23662	5574.449369892581	2
0	23663	5575.756568511032	1
0	23668	5575.839756276074	0
0	23689	5579.196550898083	1
0	23690	5579.512069460309	0
0	23696	5580.339081853682	1
0	23697	5580.787820712746	0
0	23731	5588.370331272811	1
0	23733	5589.271790766352	0
0	23778	5610.42221285875	1
0	23780	5610.911749046652	0
0	23787	5611.914887257214	1
0	23790	5612.124908352689	0
0	23811	5625.727765627976	1
0	23814	5626.325847404878	0
0	23865	5633.370505805812	1
0	23868	5634.009678196388	2
0	23869	5634.28227424855	1
0	23875	5635.090543374373	0
0	23892	5638.035664302629	1
0	23894	5638.533892970062	0
0	23921	5640.287485802545	1
0	23922	5641.22293505483	0
0	23953	5651.626605582995	1
0	23954	5651.73189957139	0
0	24068	5681.924122456704	1
0	24071	5682.195880258909	0
0	24103	5689.77309111756	1
0	24104	5689.814620998886	0
0	24150	5716.219500494292	1
0	24151	5716.323494125294	0
0	24157	5717.517248871758	1
0	24159	5717.601563480185	2
0	24160	5717.8901124966	1
0	24165	5718.238596437707	0
0	24182	5719.696768023436	1
0	24184	5720.136170469618	2
0	24185	5720.518702754913	1
0	24191	5721.21045114207	0
0	24206	5726.739130030221	1
0	24207	5727.233548101383	0
0	24213	5728.031244373119	1
0	24215	5728.183786927795	2
0	24216	5729.271244086659	1
0	24224	5731.838471642445	2
0	24227	5733.608738751586	1
0	24234	5733.928133903336	2
0	24235	5734.445870735309	1
0	24241	5734.985238992694	0
0	24293	5751.117571754174	1
0	24295	5751.312635576431	2
0	24296	5752.288342697284	1
0	24301	5753.019033917923	0
0	24330	5758.967511181085	1
[...]
4	115910	27616.161769503998	1.899255412382
4	115946	27624.454345994523	0.468079814784
4	115975	27631.390846931099	0.210527349101
4	116006	27636.556220567551	0.005094376626
4	116013	27638.079649867833	0.470345078809
4	116024	27642.917413036467	0.706159588192
4	116061	27657.01844439558	0.451096084776
4	116068	27661.632274871769	1.278325954199
4	116092	27669.835774448057	1.641237470335
4	116131	27679.146105582161	0.226214183852
4	116157	27687.108746327535	0.527095123833
4	116164	27687.429029850764	0.169123985327
4	116192	27693.793413400522	3.376307466661
4	116214	27703.934498991556	12.78086851179
4	116235	27708.870653685341	12.428404321417
4	116239	27710.928261098084	5.798081891782
4	116267	27725.628384260663	3.581361750297
4	116274	27729.006406968202	0.320106906637
4	116281	27730.324661084406	0.852849877201
4	116288	27731.729840813074	0.241991221928
4	116314	27735.822116791593	1.517476827953
4	116325	27738.404898625352	2.005387944268
4	116345	27743.324925466587	1.120726668284
4	116349	27745.185905494424	1.938584420009
4	116360	27748.237303513667	0.958005717123
4	116369	27750.763316966955	2.811611407269
4	116405	27762.011935753442	6.531644397102
4	116412	27766.016519299833	0.630840001451
4	116422	27770.854336570036	3.122106605795
4	116426	27771.524436479605	2.733921747466
4	116473	27777.718877745453	0.481748758667
4	116496	27789.676548707586	2.549478949408
4	116500	27790.785579603986	3.036500414183
4	116525	27800.303947814158	0.389753423395
4	116564	27809.159040257874	0.35361213082
4	116572	27813.560583094585	0.114877176387
4	116625	27827.317427402216	1.401400650384
4	116655	27832.817529915801	4.402440863
4	116669	27839.811586390279	0.971186941242
4	116690	27845.32840379294	3.925663240136
4	116751	27857.738479930743	3.501928051609
4	116760	27860.044038230404	4.617237107725
4	116777	27863.483589298074	1.090203957796
4	116791	27865.924278286014	1.750950082299
4	116917	27894.032965012111	24.516235831314
4	116938	27897.161265160532	24.646121090601
4	116943	27897.426778290667	22.977767414507
4	116949	27897.629962932976	21.325093837902
4	116954	27897.933719650808	21.451461920063
4	116963	27905.885051389726	17.091421186055
4	116990	27909.259353117629	13.662994903703
4	116995	27909.403381308455	12.891988722003
4	117004	27913.403362951215	7.275246963794
4	117032	27920.114353292289	2.445123778125
4	117080	27926.68801410028	0.122561008259
4	117156	27938.794490360983	5.50449726369
4	117164	27941.890769838212	7.707663653238
4	117168	27942.275752353951	7.547790424457
4	117184	27945.709621918249	0.270918792857
4	117224	27957.518181525488	1.139218700652
4	117270	27973.852613759265	7.310318677121
4	117287	27975.530536491398	0.130223125084
4	117295	27979.04276995755	1.035554650596
4	117302	27982.124847881518	1.604488409833
4	117314	27986.632440315937	2.787868522595
4	117318	27988.706620108886	4.133222145695
4	117371	28003.455530017709	6.823315429586
4	117393	28008.020779307919	8.38101483397
4	117401	28009.111152707702	8.913545125181
4	117408	28011.658245489208	3.226256545159
4	117429	28015.311896101436	0.762407487755
4	117471	28024.213726546721	0.222498703432
4	117493	28030.87471068586	2.732470029977
4	117509	28039.510388468478	0.228048339208
4	117519	28041.726841469507	2.004511639211
4	117539	28048.559532386179	2.018694503331
4	117555	28056.67325909225	1.127166759249
4	117625	28073.984867970024	8.488682178844
4	117632	28074.635391647832	8.134884576724
4	117645	28077.084536305964	9.249437708812
4	117650	28077.323060908831	6.636022186617
4	117668	28082.515772333863	7.760267100944
4	117721	28090.275729645301	10.821943770453
4	117726	28090.30812317674	9.368944982924
4	117731	28090.42641192763	8.261332061192
4	117739	28092.362143038562	2.558462374499
4	117746	28094.319786857026	4.321429591488
4	117754	28096.297668729814	6.084260648764
4	117767	28100.054627714139	6.523742103048
4	117776	28104.033864624535	5.207841521232
4	117781	28104.537001722933	4.010215453915
4	117790	28106.092235125264	4.948159601265
4	117796	28107.94379443767	3.229034566129
4	117800	28108.537704553589	3.718188879066
4	117815	28113.548024158227	2.487472766422
4	117831	28119.920397896975	3.947101396482
4	117846	28123.422564737927	2.984204312525
4	117851	28123.787742953248	2.651026100446
4	117856	28125.622415501915	4.259298086783
4	117865	28133.40409430532	11.985410991639
4	117877	28134.546508639553	7.665174741836
4	117907	28141.244308268144	6.571964686853
4	117950	28149.97004801071	10.505788443409
4	117961	28152.151672212025	10.352713802623
4	117968	28153.242036533379	3.839644036213
4	117981	28154.325498589491	0.012965105207
4	117993	28156.238754857731	1.554401638952
4	117997	28157.914505698735	1.984008798628
4	118013	28161.611646494802	2.206030539943
4	118046	28166.117346761358	4.18668904686
4	118064	28168.959663438207	4.608993849499
4	118068	28172.752491211945	7.916758080498
4	118092	28189.044203443896	0.023073651646
4	118115	28193.588091017487	3.236938254698
4	118125	28195.061617217927	0.969673067101
4	118154	28200.861525698772	1.893277370657
4	118263	28225.074838755595	25.690986876176
4	118274	28225.694423589105	12.630766005309
4	118280	28227.406270100763	13.618596299139
4	118284	28228.912100611433	11.193180502301
4	118318	28237.705820074284	5.635811530105
4	118324	28238.781865314809	1.22552411197
4	118353	28246.761693980365	0.11753913684
4	118369	28248.821144488589	0.461108077771
4	118391	28252.287565021971	1.279154830548
4	118432	28261.469057639096	0.694240871814
4	118460	28271.265119318702	2.470509394842
4	118472	28279.318899913673	0.301478663496
4	118479	28279.712438554603	0.064205047147
4	118501	28288.956891328747	5.383261239184
4	118582	28296.267107834197	10.387542819197
4	118596	28301.184804165236	11.862686424112
4	118613	28303.51607738263	12.635113812797
4	118669	28319.00806462695	27.420771425578
4	118676	28320.885080233853	26.002079959481
4	118683	28321.378133385843	25.301708916757
4	118707	28325.301935529019	27.70171977046
4	118713	28326.05935927803	18.827846257925
4	118720	28327.011542115699	18.566510260661
4	118737	28328.647383394959	17.762050359603
4	118748	28330.06630057488	15.876661410064
4	118753	28331.132157274603	9.382330961026
4	118758	28332.452894434311	5.135244593482
4	118766	28334.089692290681	6.405473083621
4	118810	28341.804666355674	2.18414094477
4	118829	28348.613804771467	4.045190751494
4	118859	28355.585796893718	0.463265556961
4	118876	28359.618695885419	0.147915354286
4	118900	28364.88412432115	0.060090190179
4	118931	28374.584779304089	1.367774315515
4	118968	28385.416809116864	0.529691586493
4	118972	28386.086506193367	1.026475102011
4	118991	28393.900006806066	3.359152606424
4	118999	28395.840079940183	4.857720374858
4	119045	28415.328699416389	0.75106722091
4	119099	28427.162044590909	7.244010828324
4	119104	28427.913738522735	5.720402537467
4	119112	28430.2145971199	7.347408065917
4	119128	28432.904391788027	9.699622840875
4	119145	28435.83480370568	2.94569025097
4	119157	28436.913289700222	3.445907000426
4	119166	28439.073457759215	5.119802950293
4	119176	28440.247942209719	4.198150874328
4	119211	28447.593510539172	2.385198189791
4	119237	28456.844998686848	0.099282955858
4	119318	28482.773935268477	2.253685401333
4	119323	28483.188863138151	1.972676738635
4	119327	28483.20438354257	0.569480522583
4	119341	28487.97087528938	2.853725279663
4	119373	28494.25496924849	7.169727565986
4	119383	28495.223445507455	4.883939106019
4	119506	28525.718468482434	27.160933360589
4	119512	28526.112060108968	26.241326410618
4	119517	28526.563161263073	20.273576565653
4	119522	28526.928644744888	15.852136527928
4	119527	28527.585090149894	14.710058938547
4	119536	28530.987899708495	13.756668769106
4	119550	28537.308339918874	18.875666435176
4	119566	28540.66756624679	19.854580172172
4	119571	28541.162155770375	19.543557876985
4	119581	28542.462325977044	13.334016277089
4	119603	28546.941092297942	11.054686630556
4	119608	28547.669470770627	8.572317835182
4	119613	28549.456919960683	9.401405833017
4	119622	28552.700080875378	10.170085751574
4	119656	28555.247094136297	1.50063905276
4	119663	28558.605910854648	0.68578072259
4	119735	28569.224853472689	10.468109188282
4	119746	28571.796889078848	12.626545036
4	119779	28582.166042227242	21.423400304058
4	119982	28630.708434897985	68.863244713626
4	119987	28630.726327659196	68.503766116761
4	119992	28630.948814516854	67.440625357967
4	120004	28635.790542610108	72.065702490295
4	120016	28638.730300125283	71.253832751581
4	120028	28640.97434954701	70.822383634485
4	120038	28643.199606667165	67.422427166897
4	120047	28644.386449595403	63.442687062345
4	120054	28645.109116653585	62.805579092606
4	120075	28650.128968777164	66.774183204838
4	120100	28652.789043946199	57.561184198497
4	120107	28653.918407732101	47.992070954337
4	120122	28656.37507969918	47.614515471116
4	120127	28657.001437931571	34.317036444969
4	120132	28657.626866163627	23.935721868924
4	120139	28659.100788210577	24.751631154104
4	120144	28659.33549918129	19.596722371177
4	120151	28660.668613630032	18.023066147729
4	120163	28661.547658043212	18.806764175975
4	120170	28663.768268760262	12.561413069492
4	120179	28668.387635296827	13.979136554581
4	120196	28670.451463411315	15.885953680465
4	120211	28674.452598228198	15.493225044785
4	120233	28680.104445780616	16.450643244327
4	120243	28685.629996128244	10.158988765406
4	120262	28690.535017407708	4.773326539952
4	120282	28702.650965079519	2.372011083736
4	120322	28709.881966734816	4.674886451862
4	120326	28713.08428363821	6.537697287668
4	120333	28716.462911880843	0.692738797462
4	120356	28721.461690753216	0.023311813234
4	120372	28724.348623230927	1.28640217823
4	120392	28728.935280423906	1.42572027439
4	120403	28731.754818902008	3.747892530042
4	120429	28736.149933450488	6.568231501065
4	120445	28738.360436367032	5.138577220319
4	120465	28745.163943925502	9.502431071079
4	120498	28749.135513488329	9.120695621845
4	120516	28750.628380466913	7.808601814042
4	120530	28752.704811186615	8.539381531073
4	120535	28753.393350434095	2.130824747667
4	120546	28755.390737412309	1.395162391818
4	120595	28768.575688207201	3.814109859552
4	120602	28774.089314922073	2.529867362546
4	120677	28792.033601139305	2.32838983968
4	120741	28803.11124576663	1.946116436912
4	120751	28804.196001011165	2.452708949115
4	120932	28840.137078260898	34.168654489827
4	120937	28841.902604222081	34.062854927506
4	120942	28842.643923708408	28.968625085382
4	120947	28843.656228132355	28.68556303346
4	120952	28845.276519791247	20.799290250124
4	120959	28847.558860132335	23.061026919536
4	120964	28849.766415620763	19.212664349946
4	120973	28852.640547589102	22.01159355296
4	120992	28854.739163981608	21.088132398308
4	121009	28860.254313863742	25.764047329488
4	121054	28865.574969765651	27.937999045582
4	121060	28867.082253507945	19.945777841905
4	121065	28868.487410099809	17.45858334633
4	121080	28874.676237867069	14.055060404653
4	121109	28884.422959948225	19.609946303312
4	121165	28895.164376510657	24.390671072087
4	121170	28897.671983413249	23.237000504791
4	121177	28900.200761870705	22.965621800752
4	121182	28900.841276412405	22.125311042729
4	121193	28903.071007935429	21.800635613587
4	121252	28910.997139206422	27.159750745549
4	121262	28912.309491249109	26.536306439897
4	121279	28914.191062340847	23.501507613824
4	121294	28921.309778171696	30.06223507743
4	121332	28925.485148695216	34.236205490902
4	121343	28931.47610057676	28.023728222192
4	121355	28932.014173226131	18.846880435182
4	121365	28935.866008858742	9.264038944106
4	121374	28939.722135097612	9.159577168023
4	121394	28941.533530156126	9.917913278405
4	121412	28945.212860062919	12.052339343414
4	121424	28946.949806989999	13.23761361837
4	121432	28949.244151441406	5.912151797353
4	121441	28950.182640513731	1.452401105878
4	121451	28950.871817857078	0.853745751365
4	121466	28960.715527759937	2.544224241771
4	121490	28969.670013530226	0.179893601413
4	121520	28973.573620159033	3.073068746701
4	121530	28977.774061416776	4.757522296711
4	121536	28978.236919644122	4.769035995973
4	121542	28980.129423364287	5.048877808251
4	121546	28980.419798507445	4.840858752401
4	121570	28986.458631480321	1.809762856426
4	121595	28990.662502969927	3.859396293523
4	121658	29003.492256908485	2.943979666403
4	121668	29007.686698839379	1.971030758371
4	121672	29008.024748749847	2.226188380507
4	121679	29009.90730570254	0.696299113166
4	121696	29015.882931876884	4.954581074654
4	121733	29022.650190314891	4.980065125183
4	121770	29029.574199286046	11.042519629329
4	121780	29030.728291276698	12.09842989884
4	121787	29032.458379047806	1.726946657975
4	121794	29033.673186287402	0.22618871805
4	121839	29040.085954605166	0.047432338111
4	121853	29044.353331799464	1.218800558469
4	121869	29047.172034313454	0.859303961028
4	121903	29054.215479496315	0.542755895226
4	121929	29066.520424139052	1.090074175042
4	121955	29069.932934408869	2.362202656654
4	121982	29077.146204181579	9.122946353519
4	122123	29108.170734857477	33.986753966339
4	122135	29110.255857151771	32.584650273848
4	122146	29114.74176452092	35.88307666203
4	122174	29119.631690828955	40.397166705553
4	122181	29123.202336226411	31.633935318483
4	122193	29125.045746186242	22.838773089723
4	122217	29128.333142455074	21.110025436457
4	122231	29131.052825259048	17.01123126374
4	122244	29133.831627442172	7.382964505519
4	122255	29137.486750685185	9.716202661209
4	122265	29140.754713349313	10.877565322479
4	122297	29151.169635652428	2.311178293176
4	122326	29160.660862522573	9.144062715346
4	122333	29162.075596778719	9.463104454946
4	122340	29162.355436223313	5.853934180802
4	122355	29164.111423366337	4.963462570021
4	122368	29169.636785959371	9.994199244594
4	122397	29178.699701104652	17.059498887453
4	122415	29180.617884109618	16.823832666375
4	122431	29184.108063140146	9.674441442016
4	122439	29185.734577382873	8.484008152583
4	122453	29187.521457887711	9.867594940028
4	122470	29190.666078781037	9.972069824582
4	122505	29200.747190737759	19.555555240022
4	122546	29204.945681503287	23.405929658018
4	122555	29210.407867704074	22.375108794738
4	122573	29217.687608344573	28.652542631657
4	122578	29220.030196182848	26.617660020171
4	122595	29229.568059066345	33.997630308272
4	122718	29259.91007022459	62.087212663235
4	122729	29264.25075894302	53.589534404861
4	122735	29265.070079728272	51.60375625412
4	122740	29265.369204336294	49.109738229773
4	122747	29267.479421471616	41.053444841237
4	122752	29271.804867089103	34.583381948708
4	122759	29274.325915663377	24.3908003293
4	122776	29277.836534749977	22.199132249221
4	122789	29280.483937506261	6.010387781419
4	122793	29280.666950570049	5.69783839798
4	122807	29285.936954455657	4.039153407924
4	122865	29296.700700210106	0.566838016397
4	122890	29308.710404924883	6.480171557664
4	122914	29310.788130252189	1.0159677994
4	122927	29314.712585848699	4.636867387027
4	122942	29318.833943895212	6.823697243717
4	122946	29319.238776758621	2.638832195605
4	122961	29328.835200473731	0.857951998936
4	122983	29332.144043446761	0.770712806804
4	123021	29346.619599807965	1.451100201954
4	123025	29348.143178317261	2.553960486322
4	123032	29354.255173562223	0.314271623092
4	123075	29371.061521383555	1.714039184242
4	123124	29380.649810073801	8.344703939874
4	123144	29385.380307249411	2.749924702418
4	123157	29388.423354791412	3.52337824901
4	123191	29392.690875044051	0.602713634204
4	123222	29399.881711253931	0.796876167973
4	123226	29399.951578866265	0.421546149486
4	123242	29403.728272802775	1.141615624016
4	123410	29442.638626357376	34.761275242857
4	123415	29442.708488257863	32.840555527299
4	123427	29446.010588157489	34.719503836288
4	123445	29447.345569851863	28.822183300678
4	123450	29448.237924497944	24.38794449457
4	123457	29449.109750054653	23.259962903274
4	123464	29449.674106641701	22.785625167847
4	123478	29453.461796467135	25.109306227289
4	123509	29458.119486107383	25.653320182263
4	123518	29459.117486262628	20.043853552748
4	123528	29460.79908377525	16.830834300585
4	123535	29464.459380452249	16.159627485273
4	123540	29465.580563141326	16.094371530493
4	123548	29468.870854618125	15.436778210493
4	123573	29474.834498043082	16.830668231697
4	123621	29483.815906668409	24.90359065724
4	123627	29484.666627263911	11.916204741525
4	123632	29484.740350880824	4.635898434514
4	123642	29486.293614013048	5.793075381449
4	123652	29488.306328803406	2.395315483293
4	123672	29497.141757699418	7.977704019022
4	123699	29500.608627015815	0.948407232263
4	123733	29509.565346414165	6.069654364075
4	123737	29509.905817252026	5.689508553387
4	123752	29513.412178109602	0.054096349312
4	123822	29528.861027595337	0.506398249706
4	123856	29533.433951591593	1.031806633196
4	123863	29534.471432475973	1.420196824023
4	123887	29544.305436480537	4.708463529279
4	123896	29548.502349965361	7.975552904017
4	123907	29552.977272723279	7.507438796423
4	123923	29558.855890746065	0.146192466627
4	123939	29565.041346198252	0.022490309034
4	123954	29568.199728054589	2.341343140741
4	123986	29576.664702488371	1.220967863753
4	124003	29579.301651358384	1.556357491912
4	124042	29591.065723733098	5.263010466137
4	124050	29599.183657476639	0.997202320913
4	124078	29609.635009004898	1.126723845536
4	124091	29611.348867495626	1.875610983775
4	124107	29613.034466383069	0.680436423852
4	124162	29624.739676727246	9.04936340876
4	124173	29630.560271671609	0.756465465269
4	124182	29631.931213759794	1.496357100919
4	124217	29638.470066243268	0.001986412453
4	124253	29648.508765973622	0.850483246455
4	124258	29649.490008482504	1.517593771144
4	124265	29651.394766046633	0.164012108606
4	124272	29652.668281571316	1.196711770839
4	124294	29657.900212428841	1.343141894445
4	124359	29674.196373896012	15.354477516238
4	124368	29674.601651378793	3.753525036463
4	124376	29675.935485419407	0.908359823295
4	124386	29677.670744754913	1.030996506301
4	124400	29680.649021933584	1.074679428729
4	124415	29682.50379263813	1.453403806393
4	124453	29691.309697506013	0.342579815394
4	124458	29692.139769810402	1.076361348131
4	124513	29707.130392591978	0.688564942398
4	124521	29711.483945584895	0.25452670237
4	124541	29718.371851629136	4.289708561823
4	124559	29725.949099952932	0.360195970893
4	124595	29741.036453643556	2.586481052912
4	124673	29759.944203358765	1.282098825601
4	124680	29762.014257567424	2.300787654061
4	124706	29770.930918467674	4.898002055949
4	124719	29775.721570684854	0.287901122795
4	124749	29783.068249699237	5.084771778398
4	124762	29790.048467072558	10.642680192109
4	124774	29792.855087565684	11.389130690232
4	124827	29804.285978556968	7.075215020398
4	124865	29811.151413274454	1.309917433689
4	124880	29813.933511401749	3.853661708724
4	124893	29816.033748870377	4.118504256137
4	124930	29827.775405125951	1.032288274153
4	124960	29837.873997889891	1.222532055702
4	124965	29838.775877735834	1.625610952496
4	125038	29857.314074928339	0.689660329841
4	125052	29864.856282867184	2.495761742218
4	125075	29867.766882320778	0.980543302477
4	125086	29869.772284789816	2.218239489608
4	125091	29869.814834648909	1.106529656522
4	125097	29871.715734760028	2.014499436587
4	125125	29877.327144848108	1.255935644665
4	125144	29882.099599151814	3.371688072263
4	125157	29884.236481454137	4.570662876515
4	125166	29885.149707606831	3.568921259687
4	125177	29886.937410193837	1.636294663631
4	125201	29892.32244630756	0.279788083495
4	125229	29899.472755743883	0.548227980083
4	125233	29900.41078270661	1.001199818756
4	125281	29912.57675285977	2.37845238672
4	125285	29913.144289185131	1.239790896182
4	125314	29922.742415914199	8.413298717424
4	125369	29926.68902393274	9.8733537268
4	125374	29926.928303599428	7.241249333459
4	125379	29928.704931620286	4.777966407254
4	125389	29931.341532862784	6.584861501546
4	125399	29932.08893428011	7.035775753359
4	125405	29933.569907059015	7.181785055364
4	125448	29950.859314318588	2.480064134127
4	125503	29975.938945893597	4.304425950599
4	125516	29979.994298387866	6.233739914848
4	125543	29984.837874573244	1.241668034911
4	125555	29987.453609756592	3.012165756507
4	125575	29990.665179044761	2.160052549613

