version 2
run Second-n3-0-20191016-14:52:44-12340
attr configname Second-n3
attr datetime 20191016-14:52:44
attr experiment Second-n3
attr inifile omnetpp.ini
attr iterationvars ""
attr iterationvarsf ""
attr measurement ""
attr network org.omnetpp.queueing.Pizza
attr processid 12340
attr repetition 0
attr replication ""
attr resultdir results
attr runnumber 0
attr seedset 0
param **.PS.maxInventoriedPS 3
param **.U1.interArrivalTime exponential(3s)
param **.U2.interArrivalTime exponential(5s)
param **.PS.serviceTimeForInventoryU1 exponential(1.0s)
param **.PS.serviceTimeForInventoryU2 exponential(1.2s)
param **.PS.serviceTimeDirectU1 exponential(1.4s)
param **.PS.serviceTimeDirectU2 exponential(1.4s)
param **.PS.probabilityProducing 0.7
param **.CS.serviceTimeU1 exponential(1.1s)
param **.CS.serviceTimeU2 exponential(1.4s)

vector 0 Pizza.EntryQueueU1 queueLength:vector ETV
attr interpolationmode sample-hold
attr title "queue length, vector"
vector 1 Pizza.CS queueLength:vector ETV
attr interpolationmode sample-hold
attr title "queue length, vector"
vector 2 Pizza.EntryQueueU2 queueLength:vector ETV
attr interpolationmode sample-hold
attr title "queue length, vector"
vector 3 Pizza.sink lifeTime:vector ETV
attr interpolationmode none
attr title "lifetime of arrived jobs, vector"
attr unit s
vector 4 Pizza.sink lifeTimeU2:vector ETV
attr interpolationmode none
attr title "lifetime of arrived jobs, vector"
attr unit s
0	0	0	0
0	10	6.155415787839	1
0	12	7.057929870225	0
0	32	9.269893689831	1
0	37	12.746473319963	0
0	44	14.695001482656	1
0	45	14.712709749746	0
0	51	15.148694043651	1
0	53	17.073821561685	2
0	58	18.942453805802	1
0	63	20.066028867586	0
0	84	21.88954023287	1
0	85	22.00540688725	0
0	103	24.410544349707	1
0	104	24.44612999607	0
0	126	31.39728447235	1
0	127	31.437964020016	0
0	133	31.811370537635	1
0	135	32.467631735765	0
0	142	33.167676718309	1
0	144	33.490582042777	2
0	145	33.574089841448	1
0	150	33.767594741416	0
0	168	37.183443651272	1
0	169	37.899546414521	0
0	191	42.006453977017	1
0	193	43.903463766204	2
0	194	44.019203081961	1
0	206	45.040529428553	0
0	218	46.041214546204	1
0	219	46.099296668504	0
0	227	47.189317392789	1
0	232	48.853599629898	0
0	254	49.6976099887	1
0	258	51.079070860022	0
0	280	58.774634636266	1
0	281	59.130584419608	0
0	311	65.30857069221	1
0	312	65.377503152146	0
0	325	66.367631092032	1
0	326	66.438487131838	0
0	335	68.979238571011	1
0	337	70.139294630194	0
0	367	75.989873775212	1
0	369	76.315515070697	2
0	371	77.378187467433	3
0	372	77.408547519267	2
0	378	77.668955731164	3
0	380	78.391649505403	2
0	389	80.07661168844	3
0	391	81.770443191802	4
0	392	82.211438532614	3
0	399	82.520687676735	4
0	400	82.715428704968	3
0	408	84.520416040687	2
0	415	84.998196262225	1
0	420	87.02190232581	0
0	453	94.934116958266	1
0	455	96.335934657496	2
0	457	98.148831873039	3
0	462	99.783403257473	4
0	467	101.949963614745	3
0	473	103.542537104932	2
0	478	105.067457592155	1
0	485	105.87720180214	0
0	509	110.913285033184	1
0	511	111.06833375057	2
0	512	111.162673092143	1
0	519	113.651104660612	2
0	521	114.584008075521	3
0	522	116.529719268936	2
0	531	117.439497198147	3
0	532	118.726608433175	2
0	537	119.137883578668	1
0	542	119.400511738801	0
0	558	121.368853312232	1
0	560	121.751259675203	0
0	600	131.912289353842	1
0	601	133.318678032739	0
0	617	135.176002654685	1
0	621	136.468022271384	0
0	634	138.289552881153	1
0	635	138.334516154238	0
0	641	138.90559618736	1
0	642	139.004465228218	0
0	660	142.394936037636	1
0	662	142.472929273215	2
0	665	145.13452821779	1
0	674	146.202981607061	2
0	675	146.576597822766	1
0	680	146.803591615731	0
0	686	148.071469536356	1
0	688	148.997034737136	0
0	707	152.195509397762	1
0	708	152.245235674107	0
0	718	152.736332296497	1
0	721	152.907968161548	0
0	760	160.410225888422	1
0	762	161.656564830899	0
0	826	179.644195668588	1
0	831	180.9039725526	0
0	837	181.182339596477	1
0	840	183.08405192782	0
0	846	183.708748504989	1
0	849	184.720224657594	0
0	855	185.044196523208	1
0	858	185.837007915615	2
0	860	186.263384449793	3
0	861	186.362120038206	2
0	867	187.443891683161	3
0	869	187.486031456888	4
0	871	187.520511207514	5
0	872	187.784582682881	4
0	877	188.184149123673	3
0	882	188.275297623883	2
0	888	189.807782260159	3
0	890	189.905591582468	2
0	895	190.802111746454	1
0	900	193.803705939806	0
0	904	194.796679602182	1
0	906	195.101281854006	2
0	911	196.046761940153	3
0	913	196.607491955176	2
0	919	197.123645895283	3
0	921	197.42543346613	2
0	926	197.792177138343	1
0	933	199.721263247869	0
0	943	200.572870058532	1
0	944	200.908082847219	0
0	961	205.080108439664	1
0	962	205.480773411367	0
0	969	206.470278522284	1
0	970	207.142281172713	0
0	1033	222.634934563795	1
0	1034	222.73925791645	0
0	1040	222.925326980719	1
0	1042	223.185177964059	2
0	1044	225.025990593282	3
0	1045	225.090421775909	2
0	1050	225.650544511462	1
0	1058	227.076301907584	0
0	1102	235.709917326184	1
0	1103	235.82727007494	0
0	1115	238.683755843462	1
0	1116	239.107227697999	0
0	1142	242.586268125842	1
0	1143	243.616553819305	0
0	1154	244.891655858015	1
0	1159	245.202668367941	2
0	1161	245.474190778386	3
0	1163	245.89488991587	2
0	1168	245.931887228882	1
0	1175	246.268995591298	2
0	1177	246.48050143638	3
0	1178	246.723496616339	2
0	1184	246.998442514654	1
0	1190	247.517607411203	0
0	1201	248.840178712055	1
0	1202	249.234049235303	0
0	1251	270.516622517816	1
0	1253	270.975887719898	0
0	1259	272.124318903835	1
0	1260	272.916383851305	0
0	1271	273.619333112473	1
0	1273	274.413679932488	2
0	1277	276.202195606678	3
0	1281	277.094316190402	4
0	1282	277.212803054596	3
0	1286	278.536950863311	4
0	1290	282.120420693835	5
0	1292	283.175722850125	6
0	1294	283.562838359678	7
0	1295	284.575878926216	6
0	1300	285.086079724635	5
0	1305	288.470751389008	4
0	1310	289.378065611373	3
0	1315	290.905404717348	2
0	1320	292.171597488699	1
0	1326	293.132549112769	0
0	1347	298.051999103586	1
0	1348	299.307766313835	0
0	1361	300.14581175008	1
0	1362	300.625343650426	0
0	1431	323.515661460082	1
0	1432	323.846014047649	0
0	1460	334.042852113093	1
0	1461	335.816487625323	0
0	1490	344.287626820388	1
0	1491	344.294155427809	0
0	1517	350.988546373684	1
0	1521	351.063045996923	2
0	1522	351.09360363516	1
0	1527	351.196734561531	0
0	1540	353.512824063467	1
0	1541	354.727475366551	0
0	1577	363.921005579797	1
0	1578	363.993157735212	0
0	1593	367.497952902454	1
0	1596	368.918854517711	0
0	1602	369.248333419369	1
0	1604	370.221285027693	0
0	1619	374.178393124987	1
0	1622	377.129813987461	0
0	1629	380.718454466454	1
0	1630	381.46541854055	0
0	1663	392.194671876006	1
0	1666	392.753947487164	0
0	1712	408.303796124538	1
0	1713	408.738151060906	0
0	1740	414.794928611686	1
0	1741	415.930861040258	0
0	1747	415.987365851456	1
0	1748	416.176820004426	0
0	1754	416.183246638394	1
0	1755	417.20485846241	0
0	1761	417.293184177647	1
0	1762	417.572341053775	0
0	1792	422.990928912388	1
0	1794	423.363610300213	0
0	1806	428.164104568793	1
0	1808	429.094692938586	2
0	1809	431.320425598292	1
0	1815	434.779922906266	0
0	1848	440.312138372705	1
0	1850	440.905333676528	2
0	1853	441.441322623545	1
0	1859	442.404525301445	0
0	1887	450.468986193348	1
0	1888	451.139168864698	0
0	1910	457.241315134021	1
0	1912	457.422269205355	2
0	1914	458.370980522882	3
0	1921	460.279131936255	4
0	1922	461.026647563852	3
0	1928	462.11139446085	4
0	1932	463.764808305794	5
0	1937	464.787697716807	4
0	1945	465.461961712357	3
0	1950	465.607394472169	2
0	1955	466.983437998894	1
0	1962	467.722258472977	0
0	1969	469.602162057561	1
0	1970	469.705457768886	0
0	1997	474.786940176464	1
0	1998	474.884212299202	0
0	2009	477.583500398161	1
0	2011	477.910595989026	2
0	2014	480.580752544334	1
0	2019	480.5820816764	0
0	2028	481.348830094218	1
0	2030	483.577001343315	2
0	2033	485.896189980999	1
0	2038	487.313720051139	0
0	2042	488.350608133344	1
0	2047	489.652731702776	0
0	2074	493.900875792957	1
0	2075	493.933418559953	0
0	2144	511.116187578839	1
0	2146	511.490770152355	2
0	2152	513.001048498718	3
0	2154	513.144860097464	4
0	2155	513.75587826777	3
0	2160	513.760132873276	2
0	2169	514.711796838093	1
0	2175	515.786415412392	2
0	2176	516.110567840644	1
0	2182	516.889957523628	0
0	2204	518.600439759216	1
0	2208	519.287065687258	0
0	2214	519.454240311187	1
0	2215	519.961825559995	0
0	2221	520.814093723629	1
0	2223	521.718180387166	0
0	2244	527.191885433458	1
0	2247	529.291364760032	0
0	2264	531.640763526593	1
0	2267	532.834390393604	0
0	2278	537.218983243849	1
0	2281	537.543121444467	2
0	2282	537.63581943519	1
0	2287	537.722004216392	0
0	2312	542.114132285488	1
0	2315	544.517970169417	0
0	2338	550.15711755473	1
0	2340	551.263492895248	0
0	2347	552.468729517027	1
0	2349	553.769633612336	0
0	2355	553.869346049414	1
0	2356	554.441110509681	0
0	2368	554.890780624021	1
0	2370	555.067487039824	0
0	2380	557.725834595856	1
0	2383	558.0799975025	0
0	2397	559.732230648367	1
0	2399	560.009393204633	2
0	2403	560.73713008126	3
0	2404	562.959722792722	2
0	2409	563.147879793667	1
0	2416	564.171620705952	0
0	2432	566.600056396354	1
0	2434	566.850400449039	2
0	2436	567.002225076991	3
0	2440	569.186293725973	4
0	2442	569.284710390143	5
0	2446	570.3504539398	4
0	2452	570.909127871134	5
0	2453	571.055362618447	4
0	2458	572.509111735245	3
0	2464	573.111767298618	2
0	2473	573.57523995397	3
0	2475	573.590738812283	4
0	2477	574.101870888342	5
0	2478	575.53040911725	4
0	2483	575.568540290068	3
0	2490	577.655929340307	4
0	2492	578.109500619639	5
0	2495	578.519327198712	6
0	2497	579.353490894536	5
0	2504	580.65516437023	4
0	2509	581.624162749233	3
0	2515	581.950804513892	2
0	2522	583.524045796975	1
0	2527	583.958463618275	0
0	2564	592.97359037927	1
0	2565	593.019020527955	0
0	2602	604.687190785573	1
0	2603	605.586543367053	0
0	2625	609.93046741885	1
0	2626	611.304824890039	0
0	2688	628.932989976273	1
0	2691	629.377130898428	0
0	2723	635.810911503266	1
0	2725	637.96880182009	2
0	2729	638.422610155221	3
0	2731	639.196445843086	4
0	2732	640.206881122363	3
0	2738	640.478188692002	4
0	2740	641.552389836969	3
0	2747	642.947268953209	2
0	2753	644.418047758041	3
0	2754	644.687843668527	2
0	2759	644.957860098882	1
0	2769	648.997675642647	0
0	2780	649.483481242114	1
0	2781	649.540924605061	0
0	2789	651.445611929668	1
0	2790	652.091042334656	0
0	2828	658.052417265984	1
0	2830	659.814033379877	2
0	2834	661.931589365208	3
0	2836	666.610243210379	4
0	2838	667.269414446886	5
0	2840	669.157788150881	6
0	2842	671.454349572413	7
0	2844	671.690072253282	8
0	2846	672.718591430863	9
0	2847	673.616529036829	8
0	2852	674.600149026065	7
0	2857	674.61085258259	6
0	2866	676.026708898982	5
0	2872	678.014076769587	6
0	2873	678.067714659009	5
0	2885	680.489106666239	4
0	2891	681.957654058998	3
0	2897	682.75344465907	2
0	2902	683.039014096715	1
0	2908	683.401047586104	2
0	2912	685.5495997182	1
0	2918	686.096991450193	2
0	2920	686.231906454007	3
0	2921	686.417689100534	2
0	2926	686.634156413267	1
0	2931	686.668411440062	0
0	2940	688.792501465048	1
0	2944	689.80961494803	2
0	2945	690.440005013656	1
0	2952	691.639915854642	2
0	2953	691.75909827932	1
0	2959	691.783681605924	2
0	2960	692.066314971533	1
0	2967	693.605588490195	0
0	2983	696.38270082324	1
0	2986	697.570195477678	0
0	3005	699.715620862327	1
0	3008	700.583518846836	2
0	3013	701.875834586071	3
0	3016	703.444162050732	2
0	3028	705.775138998798	1
0	3034	706.859068267804	0
0	3053	709.498064897589	1
0	3054	709.884271914471	0
0	3070	710.702187723233	1
0	3075	712.533960868391	0
0	3098	715.909193071747	1
0	3099	716.701595990297	0
0	3110	718.056732413703	1
0	3115	721.216739254326	2
0	3116	721.484759556848	1
0	3124	721.711459522149	2
0	3126	722.326810448685	3
0	3128	722.943817808571	4
0	3129	724.134387571615	3
0	3134	724.26122067786	2
0	3141	725.831274178998	1
0	3147	726.389373100681	0
0	3167	729.731350219941	1
0	3169	730.600910526713	2
0	3171	731.465691869432	1
0	3178	732.831561988652	2
0	3180	733.023692542862	3
0	3181	735.439479866964	2
0	3187	735.860313328438	1
0	3193	737.200457382218	0
0	3211	739.512732140028	1
0	3215	740.440085210643	2
0	3216	741.173480813722	1
0	3224	745.723425841522	2
0	3227	746.47331834189	1
0	3232	747.581178262297	0
0	3236	747.919026960066	1
0	3238	749.571822883737	2
0	3240	750.27399402261	3
0	3245	751.602363788745	4
0	3246	751.87063066556	3
0	3252	752.517051771702	4
0	3255	752.624430946952	5
0	3257	753.316686457883	6
0	3260	756.076728796596	5
0	3265	757.291525060302	4
0	3270	757.601071368101	3
0	3277	758.401090731522	4
0	3278	758.697224602593	3
0	3284	759.755055488256	4
0	3285	760.606681361502	3
0	3291	762.020364619184	2
0	3296	762.26432663345	1
0	3302	762.528954247563	2
0	3306	763.067480335529	3
0	3307	764.127707159959	2
0	3312	764.886529397342	1
0	3316	765.634914296291	2
0	3322	767.419632799285	3
0	3323	768.438120619565	2
0	3328	768.71314733369	1
0	3334	768.913948104368	2
0	3335	769.148599298478	1
0	3339	769.238195026214	2
0	3342	769.731543980499	1
0	3348	770.755837818506	2
0	3350	772.080350313271	1
0	3358	773.185945158387	0
0	3364	774.432556824321	1
0	3365	776.147056030146	0
0	3405	783.773969309884	1
0	3408	784.928305793108	0
0	3420	785.489581604893	1
0	3422	786.662710023155	0
0	3429	788.150880432153	1
0	3432	789.069509133952	2
0	3433	789.621071350413	1
0	3442	791.044293267694	0
0	3467	797.750429048615	1
0	3470	799.127279127763	0
0	3495	805.023022310798	1
0	3496	805.054111451944	0
0	3502	806.098662064616	1
0	3505	807.358514198431	2
0	3507	808.189663882754	1
0	3513	808.653902808623	0
0	3535	814.725523931543	1
0	3537	814.753782151221	2
0	3539	814.910844712513	3
0	3540	815.128138908502	2
0	3546	815.234903350565	3
0	3548	815.423378446555	4
0	3549	815.896010865109	3
0	3555	815.981714840129	4
0	3561	818.408268902978	3
0	3566	819.223372883679	2
0	3573	820.433557241209	3
0	3575	821.274960153596	4
0	3577	822.180661197016	5
0	3578	822.286609564351	4
0	3583	822.396043990686	3
0	3588	823.633767867625	2
0	3593	823.809027966539	1
0	3597	824.019304123739	2
0	3601	824.391095124668	3
0	3603	824.405092227837	4
0	3607	825.595353461112	3
0	3613	826.08016729269	2
0	3619	826.763245800212	1
0	3625	827.343562471515	2
0	3626	827.7977092718	1
0	3632	827.835464386825	2
0	3633	828.251183583168	1
0	3641	830.481914609876	2
0	3645	831.267199738884	3
0	3647	831.444764332182	4
0	3648	832.577181891283	3
0	3655	833.468558239251	2
0	3661	836.097079367425	3
0	3664	836.891209127699	2
0	3669	837.534536324194	1
0	3673	840.252381936588	2
0	3678	842.187773632113	1
0	3686	844.816412031714	2
0	3690	845.463642856949	3
0	3694	846.598811499419	2
0	3699	847.780995128134	1
0	3706	854.343053571789	0
0	3749	860.301005939518	1
0	3751	861.337691149659	2
0	3752	861.382536039858	1
0	3757	861.54811609291	0
0	3763	861.741067723314	1
0	3765	861.898274919726	2
0	3767	862.061791492919	1
0	3774	863.192410446317	2
0	3777	864.561801288394	3
0	3779	864.637044197081	4
0	3780	865.289006360507	3
0	3790	866.47743302639	2
0	3796	868.19670152173	3
0	3798	868.513561290731	4
0	3799	869.270401347565	3
0	3803	869.339620372904	4
0	3806	872.724687018778	3
0	3810	872.838331217975	4
0	3813	874.15982019297	3
0	3820	875.333432614861	2
0	3827	877.599255399801	3
0	3829	877.729907323721	4
0	3830	878.113815899687	3
0	3837	879.247449991001	2
0	3842	879.521920547442	1
0	3847	879.705337357352	0
0	3853	881.462942557272	1
0	3856	884.349667229383	0
0	3877	891.658305656179	1
0	3878	892.149468815872	0
0	3906	901.376500014882	1
0	3909	903.591714669646	0
0	3920	904.665187981683	1
0	3924	905.478737310308	2
0	3926	906.359127494633	1
0	3932	906.374194846836	2
0	3933	906.455854174469	1
0	3938	907.256643126995	0
0	3968	915.318494083017	1
0	3972	915.56292510211	2
0	3973	915.601999879661	1
0	3980	917.447626947213	0
0	3992	919.927814799535	1
0	3993	921.363360810336	0
0	4023	929.358463550221	1
0	4025	929.399658335165	2
0	4029	931.577436303987	3
0	4032	931.842486824687	2
0	4037	931.876210583305	1
0	4041	932.322284954003	2
0	4047	933.496860259631	1
0	4052	934.355408487929	0
0	4070	938.520544540209	1
0	4075	941.604170439497	2
0	4079	942.728298730658	3
0	4080	943.215133165789	2
0	4085	943.667345980065	1
0	4090	944.167823431702	0
0	4104	945.890366342074	1
0	4105	946.628934188468	0
0	4130	948.007545538093	1
0	4132	948.909240574414	2
0	4135	950.278036302021	1
0	4140	950.370096686866	0
0	4146	951.163604010361	1
0	4148	951.315904562609	2
0	4152	952.028018280318	3
0	4154	953.16978466947	4
0	4156	953.399047812439	5
0	4157	953.823875888935	4
0	4164	954.463721583045	5
0	4166	955.394983867758	4
0	4171	956.322926925316	3
0	4177	958.115996180018	2
0	4182	958.864048189801	1
0	4187	960.401053669134	0
0	4223	973.375556029269	1
0	4226	975.128232313808	0
0	4240	976.90478514387	1
0	4241	978.026989786023	0
0	4261	980.313349232509	1
0	4264	983.215339179012	0
0	4272	985.41559637085	1
0	4274	987.087700876424	0
0	4303	993.221752262556	1
0	4309	993.805914319965	2
0	4310	994.09718862722	1
0	4317	994.839259238035	2
0	4318	995.490086094132	1
0	4325	996.704810408011	2
0	4329	998.979431319154	3
0	4330	999.152887182823	2
0	4335	999.668860277246	1
0	4341	1000.905379268257	0
0	4357	1003.838934441213	1
0	4361	1004.484547235881	2
0	4363	1004.614409979402	3
0	4365	1005.100197419354	4
0	4369	1005.875503259482	5
0	4370	1007.122535542736	4
0	4375	1007.350177169318	3
0	4381	1007.651574066033	4
0	4383	1008.099398629862	3
0	4388	1008.13641769033	2
0	4393	1009.885648168037	1
0	4402	1015.335839354453	0
0	4406	1018.310405008849	1
0	4408	1018.45014158609	2
0	4417	1021.414443880422	3
0	4418	1021.843637894898	2
0	4424	1022.071524413833	3
0	4426	1023.20552087338	2
0	4433	1023.847288474035	3
0	4436	1025.366082888363	2
0	4442	1027.619643447045	3
0	4443	1027.707559934098	2
0	4447	1027.906271490496	3
0	4450	1028.984340050437	2
0	4456	1029.994499263098	3
0	4459	1031.224425579436	2
0	4466	1033.913264863707	1
0	4473	1035.971535111276	0
0	4477	1037.160509648784	1
0	4480	1042.94523862889	0
0	4491	1045.176114335605	1
0	4493	1046.222320366253	0
0	4499	1049.196082416024	1
0	4503	1050.803354614312	0
0	4511	1051.098386866338	1
0	4512	1051.22664497469	0
0	4518	1052.160903092378	1
0	4519	1052.850032208218	0
0	4531	1054.808581300812	1
0	4532	1055.671089637321	0
0	4592	1074.038406977419	1
0	4593	1075.394849884471	0
0	4604	1076.719989943368	1
0	4606	1076.779654265443	2
0	4608	1076.878540801737	1
0	4613	1076.922531345752	0
0	4624	1079.155000400167	1
0	4628	1080.661212606664	2
0	4631	1082.14059741615	3
0	4633	1082.786116706663	2
0	4638	1082.818579995044	1
0	4644	1084.455023138285	0
0	4685	1093.731856085198	1
0	4686	1094.182709446111	0
0	4694	1095.821922324391	1
0	4696	1096.487201655664	2
0	4702	1099.13017608742	3
0	4703	1099.322525602411	2
0	4708	1100.970315354584	1
0	4713	1101.564469005762	0
0	4725	1102.287486996797	1
0	4727	1102.499696897675	2
0	4735	1105.216651908541	1
0	4741	1105.684787413981	0
0	4763	1110.437719564727	1
0	4764	1111.359656216301	0
0	4770	1111.639030876708	1
0	4772	1113.65315082396	0
0	4791	1119.985416709084	1
0	4796	1121.7828511059	0
0	4808	1123.338895023477	1
0	4810	1125.197213276735	2
0	4811	1126.649805454982	1
0	4820	1130.022977049071	2
0	4822	1130.266583830287	3
0	4823	1130.459937180102	2
0	4828	1130.535746448537	1
0	4835	1134.980104877731	0
0	4844	1135.338706200766	1
0	4852	1138.157171581222	2
0	4854	1139.021409481788	3
0	4858	1141.059331878725	2
0	4864	1141.729468516446	1
0	4869	1142.345504798082	0
0	4878	1143.342270442353	1
0	4884	1145.49457705419	0
0	4896	1147.895425550817	1
0	4899	1149.475608414937	0
0	4941	1161.013635630674	1
0	4943	1161.133125772561	2
0	4946	1162.444354294564	1
0	4951	1162.615462926768	0
0	4957	1163.315304805796	1
0	4958	1163.65680213914	0
0	4964	1163.68677199182	1
0	4970	1165.251055094642	0
0	4983	1167.261118683738	1
0	4986	1169.158049417222	0
0	4993	1171.057096394067	1
0	4994	1171.11412512056	0
0	5017	1176.624611543839	1
0	5018	1176.698093541058	0
0	5028	1177.309623624475	1
0	5029	1177.512607248545	0
0	5052	1182.101060359871	1
0	5054	1182.241319896669	2
0	5056	1182.810071543716	3
0	5057	1184.170033742466	2
0	5062	1184.297829286304	1
0	5068	1184.961865117862	0
0	5088	1188.478713441417	1
0	5093	1191.452992260983	0
0	5136	1199.718569943365	1
0	5137	1200.969232964493	0
0	5143	1201.06386586343	1
0	5150	1202.907353469348	2
0	5153	1203.865279294111	3
0	5154	1204.470358753743	2
0	5159	1204.503729098149	1
0	5164	1204.600495632268	0
0	5189	1210.409876054223	1
0	5192	1211.272779805904	0
0	5198	1211.394028170051	1
0	5200	1211.879021878616	0
0	5207	1212.554317055272	1
0	5208	1213.92603364813	0
0	5214	1215.560997308775	1
0	5217	1216.929417563834	2
0	5218	1218.192722260004	1
0	5223	1218.533448360192	0
0	5259	1229.462935026251	1
0	5260	1229.590984512661	0
0	5279	1231.838193793082	1
0	5282	1233.180990444817	0
0	5292	1234.244058079068	1
0	5296	1237.695254104851	2
0	5299	1238.350996072438	1
0	5305	1242.531573501847	0
0	5314	1245.511120543738	1
0	5316	1245.551337256798	2
0	5318	1247.431907847713	3
0	5321	1248.848837427523	2
0	5328	1249.306912616278	1
0	5333	1249.373179435531	0
0	5340	1250.228115811883	1
0	5342	1250.539460800333	2
0	5345	1250.859826217325	3
0	5347	1251.659178780835	2
0	5353	1252.054198376154	1
0	5358	1252.829491822047	0
0	5378	1256.648740740043	1
0	5379	1257.06437607588	0
0	5385	1257.22685850063	1
0	5386	1257.250119896623	0
0	5404	1260.776657870494	1
0	5407	1261.782151890884	2
0	5410	1262.636773433271	1
0	5417	1263.416695235259	0
0	5424	1264.881710060299	1
0	5425	1264.964918457709	0
0	5431	1265.255482403848	1
0	5434	1265.513451610403	2
0	5435	1265.685807045098	1
0	5444	1266.006296808293	2
0	5445	1266.155377609992	1
0	5451	1267.822982429414	2
0	5452	1267.879558412248	1
0	5458	1268.853731938406	0
0	5492	1277.130540051214	1
0	5495	1277.464008386919	0
0	5542	1286.404988722697	1
0	5543	1288.015182649727	0
0	5606	1309.641013762452	1
0	5607	1310.067945872633	0
0	5633	1316.878533502835	1
0	5636	1317.011463804428	0
0	5659	1322.959178154888	1
0	5662	1326.061000384332	2
0	5664	1326.247837942719	3
0	5665	1326.567759754519	2
0	5671	1329.746370527996	1
0	5677	1331.185055083953	0
0	5692	1333.03625675233	1
0	5694	1333.879830469976	2
0	5697	1335.123908010832	1
0	5702	1336.502001691697	0
0	5733	1342.462355090514	1
0	5734	1345.999415030978	0
0	5741	1347.016833337135	1
0	5742	1347.587393177931	0
0	5751	1348.802076385861	1
0	5753	1349.332549195433	2
0	5756	1350.472591783282	1
0	5765	1352.136873841537	0
0	5781	1354.491981846662	1
0	5783	1354.815352940296	2
0	5784	1355.934082787821	1
0	5790	1358.408493964521	2
0	5796	1361.517289103163	1
0	5802	1362.648092239952	0
0	5814	1363.74114328069	1
0	5820	1365.26148625635	0
0	5861	1374.990528228652	1
0	5863	1375.54835377023	2
0	5867	1376.084560840324	3
0	5870	1376.896693026457	2
0	5876	1376.988900107056	3
0	5878	1377.861994981984	2
0	5883	1377.90599495706	1
0	5889	1377.925272236307	2
0	5892	1378.740879491954	1
0	5898	1378.875782296656	2
0	5903	1380.316821528999	1
0	5908	1380.450809485168	0
0	5929	1385.907591960404	1
0	5933	1387.340085807165	2
0	5934	1388.474473227651	1
0	5939	1388.47622865229	0
0	5972	1398.162790129045	1
0	5978	1400.56389314999	0
0	5989	1401.13838484651	1
0	5994	1402.21641554944	2
0	5997	1406.017669416123	1
0	6002	1407.5775695024	0
0	6027	1410.34608613332	1
0	6028	1411.309980924126	0
0	6066	1420.133558355041	1
0	6067	1420.212186215858	0
0	6107	1428.553445937123	1
0	6109	1428.715967490207	0
0	6147	1436.228028822971	1
0	6149	1437.542045246757	2
0	6152	1440.100572768375	1
0	6159	1440.963821212988	2
0	6162	1441.426699023176	3
0	6164	1442.740142438748	4
0	6166	1442.874702849156	5
0	6167	1443.851477958293	4
0	6172	1444.149298357177	3
0	6180	1445.298353330967	2
0	6185	1445.461488087254	1
0	6193	1445.895341638277	0
0	6204	1446.18078825506	1
0	6205	1446.387012294652	0
0	6229	1453.347606801028	1
0	6232	1454.823010209158	0
0	6252	1461.578641737813	1
0	6259	1463.90520751735	2
0	6260	1464.398850412677	1
0	6265	1465.028687532738	0
0	6271	1465.77548144957	1
0	6272	1465.963340523907	0
0	6289	1469.138766513289	1
0	6291	1469.160689465249	2
0	6295	1469.64371134725	3
0	6298	1472.756411905371	2
0	6303	1473.082655331149	1
0	6308	1473.440860004255	0
0	6329	1476.984207513548	1
0	6330	1477.087503145504	0
0	6336	1477.3691815346	1
0	6338	1477.8248509099	2
0	6340	1478.076519555299	3
0	6343	1478.279914369984	2
0	6349	1479.133386856706	1
0	6355	1480.175324680781	0
0	6367	1480.918610237191	1
0	6375	1484.305737861474	0
0	6400	1490.146902411198	1
0	6406	1495.500680554006	2
0	6407	1495.679326165301	1
0	6413	1496.369466345227	0
0	6488	1513.847348819451	1
0	6490	1514.464227385752	2
0	6493	1517.500808128885	1
0	6498	1517.547256125586	0
0	6536	1532.636206695674	1
0	6540	1534.334433483901	0
0	6560	1540.068840819036	1
0	6563	1541.52911093263	2
0	6565	1543.401597904459	3
0	6566	1543.587137500392	2
0	6573	1544.561958667783	1
0	6578	1545.67419316969	0
0	6592	1546.883284676232	1
0	6594	1548.338532816577	2
0	6595	1550.249871262766	1
0	6600	1550.751711154536	0
0	6613	1551.913911454566	1
0	6616	1553.333037283935	0
0	6620	1555.550101187422	1
0	6626	1555.978513070147	2
0	6627	1556.991663988341	1
0	6631	1557.961286744265	2
0	6639	1562.0570921306	1
0	6644	1562.59313795408	0
0	6648	1562.714444542083	1
0	6652	1563.489616007704	2
0	6653	1563.823294223326	1
0	6659	1565.706727126484	0
0	6694	1574.080364464699	1
0	6698	1577.332333842391	0
0	6714	1583.933997412307	1
0	6721	1587.273300729883	0
0	6743	1592.350106517958	1
0	6747	1594.95438137501	2
0	6749	1595.424633666449	3
0	6752	1596.755785768196	2
0	6758	1597.05309183166	3
0	6759	1597.526036370861	2
0	6764	1599.494698073421	1
0	6769	1599.873522476061	0
0	6795	1606.422933887299	1
0	6797	1607.513415308214	0
0	6809	1608.281802257551	1
0	6810	1608.703619807186	0
0	6831	1614.628064518982	1
0	6832	1617.196382217688	0
0	6848	1619.805852090497	1
0	6850	1620.348559402034	2
0	6851	1620.677977137842	1
0	6858	1621.750422732835	0
0	6889	1628.319836309614	1
0	6892	1630.585811249308	0
0	6903	1632.51394595406	1
0	6905	1634.306701747683	2
0	6914	1637.954287735055	1
0	6919	1638.518183980305	0
0	6959	1650.633401174329	1
0	6961	1650.663287343106	2
0	6967	1652.844880763192	3
0	6969	1653.239240205624	4
0	6972	1653.86341750615	3
0	6978	1654.782723972964	2
0	6984	1655.27674002929	1
0	6990	1656.02652726878	2
0	6991	1656.20142869364	1
0	6998	1656.532713184154	0
0	7004	1656.946615284115	1
0	7007	1658.280058127204	0
0	7024	1661.545705821783	1
0	7025	1662.264564126559	0
0	7029	1662.874586713049	1
0	7031	1662.913592244124	2
0	7033	1663.009939269159	3
0	7043	1666.913469841511	4
0	7044	1667.155326032517	3
0	7050	1667.351238989018	4
0	7052	1667.398297307353	5
0	7054	1668.129366416171	4
0	7062	1669.1259541426	3
0	7068	1669.439239004081	2
0	7073	1669.705773595167	1
0	7078	1669.76762593774	0
0	7089	1671.841486039597	1
0	7091	1673.372944636524	0
0	7108	1676.170040384135	1
0	7111	1677.043976303097	2
0	7113	1679.42933651696	3
0	7114	1680.313697062656	2
0	7119	1680.454223695588	1
0	7126	1683.089317833758	0
0	7144	1687.57666258957	1
0	7145	1688.046945436456	0
0	7174	1696.420937431685	1
0	7175	1696.748972636607	0
0	7186	1697.547632210369	1
0	7191	1697.973250455481	0
0	7215	1703.816397328248	1
0	7216	1704.015351844876	0
0	7266	1715.377169551967	1
0	7269	1716.20586249165	0
0	7286	1720.115472967924	1
0	7289	1720.773925112765	0
0	7300	1722.876621420797	1
0	7301	1724.282410850689	0
0	7376	1743.496332275338	1
0	7379	1747.021746057402	0
0	7405	1751.385003827906	1
0	7407	1751.920015548036	0
0	7422	1754.164231066843	1
0	7425	1755.350053101714	0
0	7449	1761.965176463041	1
0	7450	1762.041084448373	0
0	7464	1765.179496767569	1
0	7468	1767.171495187437	2
0	7469	1767.576382080159	1
0	7477	1769.764566154758	2
0	7478	1770.070769132384	1
0	7483	1770.087021008277	0
0	7504	1778.9633745826	1
0	7505	1779.089001789144	0
0	7562	1797.910255556483	1
0	7563	1798.197326373169	0
0	7569	1798.460630829483	1
0	7570	1798.760170813606	0
0	7585	1800.321081701469	1
0	7591	1801.52321367455	2
0	7594	1803.151554844647	1
0	7600	1803.315058367488	2
0	7601	1803.336645384814	1
0	7607	1803.650642571312	2
0	7609	1804.540078099975	3
0	7610	1804.717177210394	2
0	7616	1805.013367305368	3
0	7618	1806.062844131802	2
0	7625	1809.14176952474	1
0	7633	1809.732036751997	2
0	7634	1809.922072866361	1
0	7639	1810.459327956773	0
0	7643	1811.586679116331	1
0	7645	1812.611660084509	2
0	7648	1812.866349904349	1
0	7652	1815.065961852545	2
0	7655	1815.585555798383	1
0	7659	1816.820801170155	2
0	7661	1818.641182714668	3
0	7666	1819.621985595465	2
0	7675	1825.64980941548	1
0	7681	1827.136430538336	2
0	7683	1827.35976504483	3
0	7685	1828.599659062806	2
0	7691	1829.583695808176	1
0	7696	1830.735357599849	0
0	7709	1832.399051286426	1
0	7710	1832.813216829694	0
0	7725	1836.738879302903	1
0	7726	1836.916299821586	0
0	7762	1844.416721943628	1
0	7778	1852.10860754808	0
0	7818	1861.890862735921	1
0	7822	1863.672821967838	2
0	7826	1865.763964505499	3
0	7827	1868.16107755506	2
0	7836	1871.546202509992	1
0	7845	1874.738948066363	2
0	7846	1874.908092651882	1
0	7857	1876.885457127967	2
0	7863	1877.567501620832	3
0	7864	1877.659291423367	2
0	7869	1877.676145735516	1
0	7875	1878.302966194806	0
0	7907	1882.902922635722	1
0	7911	1883.419061259547	2
0	7912	1884.789175674167	1
0	7918	1885.664366631315	2
0	7919	1885.76511966513	1
0	7925	1886.065248002903	2
0	7926	1886.526397475609	1
0	7932	1887.098560681215	2
0	7934	1887.801616104338	1
0	7941	1888.669885410545	0
0	7953	1893.212704220308	1
0	7955	1893.601715919403	0
0	7969	1895.909134814134	1
0	7971	1897.610284533109	0
0	7985	1901.194576773021	1
0	7986	1902.644950353299	0
0	7998	1904.586287429331	1
0	8002	1905.199159249368	2
0	8004	1906.078135274287	3
0	8006	1906.325008776696	4
0	8007	1906.627000158091	3
0	8013	1907.321681210409	2
0	8018	1907.457121774547	1
0	8025	1908.643178567415	0
0	8050	1913.225175756171	1
0	8051	1913.237516492085	0
0	8058	1915.083514696432	1
0	8059	1915.390462062234	0
0	8074	1917.913898893193	1
0	8075	1920.057490428989	0
0	8086	1920.83633280675	1
0	8091	1922.083930397968	2
0	8096	1924.226433806447	3
0	8098	1925.103944360011	4
0	8101	1925.264893623819	3
0	8107	1925.857570218718	4
0	8109	1926.365534783048	5
0	8111	1926.800993973327	6
0	8113	1927.788965425468	7
0	8114	1927.946768827477	6
0	8121	1928.298446736407	5
0	8126	1928.417690312245	4
0	8131	1928.548987803207	3
0	8137	1928.654980435402	4
0	8139	1929.05724992412	5
0	8144	1930.271628021448	4
0	8149	1931.372790050411	3
0	8154	1931.637473432151	2
0	8159	1932.996810728662	1
0	8164	1935.346989337274	0
0	8189	1942.643343760818	1
0	8190	1944.457301371436	0
0	8202	1945.750648301911	1
0	8204	1947.320701967154	2
0	8206	1947.335895993973	3
0	8209	1947.690534086968	2
0	8216	1949.104130308925	1
0	8221	1949.237695912578	0
0	8227	1949.501981849374	1
0	8228	1949.741948305897	0
0	8254	1955.626953246402	1
0	8255	1956.428244140947	0
0	8268	1959.408978676285	1
0	8270	1959.569241006648	0
0	8279	1960.599792932977	1
0	8281	1963.050493294344	2
0	8285	1965.262026804793	1
0	8290	1965.504562813116	0
0	8306	1967.471808337308	1
0	8307	1967.578762031812	0
0	8311	1968.012739252144	1
0	8314	1969.072982617521	0
0	8318	1969.848462785454	1
0	8320	1970.074825628597	2
0	8324	1972.143246598327	1
0	8330	1975.693699451582	2
0	8332	1976.357167532728	1
0	8338	1979.112242054612	0
0	8345	1979.213579722461	1
0	8346	1979.237774761807	0
0	8404	1988.160514483238	1
0	8405	1988.222888964248	0
0	8409	1988.946676674976	1
0	8414	1990.5345268361	0
0	8427	1991.569444287184	1
0	8429	1991.98017978912	2
0	8430	1993.044237007312	1
0	8435	1994.897329540246	0
0	8478	2021.509928256712	1
0	8482	2023.046608844922	2
0	8483	2023.959661444177	1
0	8487	2024.98310869332	2
0	8490	2026.046733606506	1
0	8495	2027.365119393809	0
0	8501	2028.567320327238	1
0	8502	2028.716118902607	0
0	8506	2028.822213468893	1
0	8514	2029.742156036127	2
0	8516	2030.990796016519	1
0	8521	2031.018882743454	0
0	8532	2032.351933690886	1
0	8533	2032.564203943307	0
0	8585	2045.232699232555	1
0	8586	2045.685004350836	0
0	8602	2049.807720797745	1
0	8603	2050.278659215672	0
0	8641	2068.172705639122	1
0	8642	2068.583027980933	0
0	8655	2069.76914493832	1
0	8659	2071.48159501561	2
0	8660	2072.248740291913	1
0	8665	2072.399894701853	0
0	8714	2087.840027993416	1
0	8716	2088.984540925943	2
0	8717	2089.612342264057	1
0	8725	2090.26802707734	0
0	8744	2092.745741841359	1
0	8747	2093.761795977562	2
0	8749	2093.791000561471	3
0	8751	2094.797112720108	4
0	8752	2094.866773382226	3
0	8759	2095.735718954453	2
0	8766	2097.926354418645	1
0	8770	2098.155317947266	2
0	8773	2098.518632754337	1
0	8777	2099.758432396488	2
0	8780	2101.208748863216	1
0	8790	2105.520620984038	0
0	8830	2110.812572954049	1
0	8833	2112.16884120521	2
0	8834	2114.196883986188	1
0	8841	2114.993601640865	2
0	8843	2115.024746494734	3
0	8844	2115.30285719919	2
0	8852	2115.518587559952	1
0	8862	2118.107196466151	0
0	8882	2122.40606858139	1
0	8884	2122.591204348808	2
0	8885	2123.047556253874	1
0	8890	2124.291393178483	0
0	8901	2124.685118182145	1
0	8903	2124.844346212866	2
0	8912	2125.814353165682	3
0	8913	2126.998177579268	2
0	8920	2127.585976904815	3
0	8922	2128.591693154407	4
0	8925	2128.954396852533	3
0	8931	2129.491033693533	4
0	8932	2130.409306806286	3
0	8937	2132.044582308638	2
0	8945	2133.510093715166	1
0	8949	2134.541767578891	2
0	8953	2136.146205937277	3
0	8955	2136.337442508009	2
0	8961	2136.582127160088	3
0	8963	2137.724083558539	4
0	8966	2139.103808213446	5
0	8968	2139.680551385656	6
0	8969	2140.079236214228	5
0	8976	2140.559332933901	4
0	8982	2142.507016350538	5
0	8984	2142.785856644987	6
0	8987	2143.255313200323	7
0	8989	2143.711190117741	6
0	8995	2145.072528846157	7
0	8996	2146.160531456773	6
0	9001	2146.204434777168	5
0	9008	2148.944243813398	4
0	9015	2153.322142275666	3
0	9019	2153.401967957319	4
0	9022	2154.260170133252	3
0	9028	2155.404553585035	2
0	9034	2156.660891938502	1
0	9039	2156.707526033353	0
0	9043	2158.834398836061	1
0	9047	2159.650484382878	2
0	9048	2159.751444403909	1
0	9055	2160.906141852399	0
0	9068	2162.928482904728	1
0	9071	2163.652250932072	2
0	9072	2167.787630373352	1
0	9081	2168.439416524068	2
0	9083	2169.644042661398	1
0	9089	2170.013218723428	2
0	9090	2170.470094018699	1
0	9095	2170.865816422727	0
0	9112	2172.844765151136	1
0	9117	2174.522420461188	0
0	9131	2176.78596733443	1
0	9133	2177.440234240511	2
0	9140	2179.935071907385	1
0	9145	2180.85691195883	0
0	9154	2181.693394550847	1
0	9161	2185.08727963284	0
0	9188	2188.238916759301	1
0	9189	2188.370062642651	0
0	9195	2188.491259765874	1
0	9197	2189.022083089354	2
0	9199	2189.451478871903	3
0	9202	2190.100632656574	4
0	9203	2191.163395119639	3
0	9208	2191.356303652207	2
0	9214	2193.387150904029	1
0	9224	2195.44368900865	0
0	9241	2196.512758007332	1
0	9245	2199.014870524225	0
0	9251	2199.426802523076	1
0	9253	2199.883858598735	2
0	9255	2200.253486246052	1
0	9261	2200.360501886531	0
0	9274	2203.476710854129	1
0	9275	2203.96573490507	0
0	9287	2205.930006849022	1
0	9289	2206.503788064275	2
0	9290	2206.789668013673	1
0	9296	2206.881014878873	2
0	9297	2206.998709770934	1
0	9302	2207.554802796226	0
0	9318	2209.383828424436	1
0	9323	2211.86937193161	0
0	9356	2223.17322819897	1
0	9357	2224.190160968554	0
0	9363	2224.471712068586	1
0	9366	2226.142018998412	2
0	9367	2226.399470493648	1
0	9375	2227.561391004145	0
0	9395	2230.235307169831	1
0	9398	2231.215077947187	0
0	9412	2231.944394382248	1
0	9416	2233.46926411492	0
0	9424	2234.439311663929	1
0	9426	2234.547867678273	2
0	9428	2234.67080349277	3
0	9429	2235.051693146056	2
0	9435	2236.306326721866	3
0	9437	2237.281728263782	4
0	9440	2238.858395965018	3
0	9446	2239.375119344402	2
0	9451	2239.707709334933	1
0	9457	2239.960387061826	2
0	9459	2240.273917308016	1
0	9465	2241.481222709726	2
0	9467	2241.576600493928	3
0	9469	2242.89006234001	2
0	9476	2243.878334713383	1
0	9483	2246.15455507752	0
0	9552	2264.843923405099	1
0	9557	2267.821468324861	0
0	9619	2281.513815866932	1
0	9623	2282.6655628539	0
0	9640	2289.099772270408	1
0	9645	2292.708891797537	0
0	9697	2307.940793167523	1
0	9698	2308.856491403126	0
0	9713	2311.501203261691	1
0	9714	2311.730706531411	0
0	9740	2316.296602201515	1
0	9741	2316.831846989374	0
0	9778	2324.468297670868	1
0	9780	2325.95889060408	0
0	9805	2327.541351420097	1
0	9806	2327.747320515974	0
0	9812	2327.860688999845	1
0	9815	2330.475140154568	0
0	9889	2365.113227755821	1
0	9890	2365.747064047038	0
0	9912	2369.265666034344	1
0	9914	2371.055999694888	0
0	9931	2375.167081273538	1
0	9933	2375.453067380385	2
0	9934	2375.561246870274	1
0	9939	2375.887630729347	0
0	9950	2379.237649704727	1
0	9954	2380.838774763591	0
0	9965	2381.293038115063	1
0	9969	2382.225665598217	0
0	9982	2385.376587648045	1
0	9983	2385.448469276555	0
0	9999	2387.800233887495	1
0	10000	2388.141061660383	0
0	10006	2388.821478905347	1
0	10008	2389.649887810046	0
0	10039	2397.482520009171	1
0	10040	2398.245387998285	0
0	10064	2400.955527411189	1
0	10068	2402.182466378498	2
0	10069	2402.269255621904	1
0	10074	2402.571785516896	0
0	10095	2405.491724637435	1
0	10096	2406.103865790455	0
0	10141	2424.268550464792	1
0	10142	2424.448802598414	0
0	10160	2432.354774860921	1
0	10162	2433.017311551435	2
0	10163	2433.334714192717	1
0	10168	2435.204928846103	0
0	10184	2438.991408847626	1
0	10188	2440.031321085172	2
0	10191	2440.776278899142	3
0	10193	2442.02242604878	2
0	10198	2442.072555524539	1
0	10203	2442.594305576951	0
0	10222	2449.121810797841	1
0	10223	2452.560662886277	0
0	10242	2459.690990752294	1
0	10245	2462.385059291048	0
0	10367	2496.035223900324	1
0	10371	2496.607806935051	2
0	10372	2496.905941013993	1
0	10378	2498.697678175711	0
0	10398	2501.999224503275	1
0	10400	2503.248442918638	2
0	10405	2504.263979380652	1
0	10412	2504.90880523684	0
0	10465	2521.457170274806	1
0	10468	2523.328720303934	0
0	10512	2536.870772235425	1
0	10513	2537.56172986963	0
0	10545	2544.128773040747	1
0	10547	2545.564039456297	0
0	10599	2558.459090214648	1
0	10605	2558.995184491189	0
0	10621	2560.654528615632	1
0	10626	2562.70238348871	0
0	10644	2564.566546225173	1
0	10645	2564.807688569716	0
0	10656	2566.355883512048	1
0	10659	2567.357227089126	0
0	10691	2574.812365024202	1
0	10693	2575.033588503741	2
0	10697	2576.141681686982	1
0	10705	2577.178935276112	2
0	10708	2578.655212570641	1
0	10714	2578.828840597708	2
0	10715	2579.499641216522	1
0	10721	2579.883966081963	0
0	10742	2584.160179164663	1
0	10743	2584.469697973515	0
0	10766	2590.679909217574	1
0	10768	2592.045943343696	2
0	10770	2592.134581371901	3
0	10775	2593.902072557663	2
0	10780	2593.999914223286	1
0	10789	2595.989156411157	0
0	10796	2596.941346454096	1
0	10799	2598.904951291531	0
0	10815	2602.151153258026	1
0	10819	2603.558740646015	2
0	10821	2605.411063975186	3
0	10823	2606.620644558384	4
0	10827	2607.091776950011	5
0	10830	2607.592374921773	4
0	10837	2608.539568176285	3
0	10843	2608.735457679273	4
0	10847	2611.038277888062	3
0	10853	2612.060137040437	2
0	10858	2612.137776395793	1
0	10862	2612.230809169421	2
0	10864	2612.520463084262	3
0	10869	2613.746468276149	2
0	10874	2614.173756940063	1
0	10882	2615.584061285684	0
0	10896	2616.773782523546	1
0	10897	2617.762797115016	0
0	10904	2618.067154691269	1
0	10908	2618.962444022174	0
0	10914	2619.325792910662	1
0	10919	2619.919858838754	2
0	10921	2621.754004586069	3
0	10923	2622.288845512809	4
0	10925	2623.370955987115	5
0	10926	2624.141298099401	4
0	10932	2625.005110680246	5
0	10933	2625.043667478997	4
0	10940	2626.450591605715	3
0	10945	2626.487132345273	2
0	10950	2627.037710864732	1
0	10956	2628.082597975225	2
0	10957	2629.48051355763	1
0	10962	2630.709885480395	0
0	11001	2641.934789161384	1
0	11006	2645.407729405243	0
0	11020	2651.40210713854	1
0	11021	2651.910995162121	0
0	11036	2653.959756608281	1
0	11039	2657.870690702523	0
0	11047	2658.021687018552	1
0	11050	2658.735198406212	2
0	11051	2659.790277867826	1
0	11056	2660.145407064646	0
0	11069	2660.887730665884	1
0	11070	2661.883008050389	0
0	11116	2675.049212863196	1
0	11117	2675.679693031624	0
0	11137	2678.05883995752	1
0	11138	2678.537299185475	0
0	11186	2690.881442712005	1
0	11187	2691.539935767804	0
0	11209	2694.494935574119	1
0	11213	2695.685335346062	0
0	11234	2699.274946629516	1
0	11236	2699.881118695888	2
0	11237	2701.281630581909	1
0	11244	2703.084932960921	2
0	11245	2703.193111718925	1
0	11250	2704.08801935675	0
0	11257	2704.396548218311	1
0	11259	2704.554438874909	0
0	11274	2708.977245909411	1
0	11275	2709.02070186734	0
0	11330	2721.634593809553	1
0	11331	2724.131938769847	0
0	11337	2724.760828703462	1
0	11339	2725.970715713553	0
0	11377	2736.626103244331	1
0	11378	2736.92250431934	0
0	11390	2737.692616804387	1
0	11392	2737.968833736217	2
0	11398	2740.693816426556	3
0	11399	2740.85221410321	2
0	11404	2741.048112117291	1
0	11409	2741.141898898777	0
0	11447	2746.980060886796	1
0	11451	2748.716697100905	2
0	11452	2748.935548723431	1
0	11459	2751.090338478081	0
0	11468	2751.714658020394	1
0	11469	2752.179477092514	0
0	11475	2752.339089790263	1
0	11476	2752.361147892972	0
0	11482	2753.120599737242	1
0	11483	2754.534136855679	0
0	11511	2762.100684425737	1
0	11512	2763.618567372436	0
0	11577	2781.946616639899	1
0	11580	2783.084472833107	0
0	11618	2787.853763910366	1
0	11619	2789.650266900935	0
0	11679	2805.683944160355	1
0	11681	2805.875253638634	2
0	11683	2806.199200351566	1
0	11688	2806.427969655591	0
0	11695	2807.298535566064	1
0	11696	2807.305128712219	0
0	11757	2817.395740428865	1
0	11758	2818.523777257804	0
0	11781	2825.285783716582	1
0	11783	2825.972201500412	2
0	11787	2827.752159384761	3
0	11788	2829.727477046529	2
0	11793	2830.168797657981	1
0	11798	2830.567114510487	0
0	11807	2831.664430749218	1
0	11809	2832.244125621177	2
0	11811	2833.047169572819	3
0	11812	2833.392132333322	2
0	11817	2833.413122511285	1
0	11823	2833.415903074697	2
0	11825	2834.041603472005	3
0	11832	2835.27527366025	4
0	11833	2835.280616762333	3
0	11839	2835.765086768231	4
0	11840	2835.980162148003	3
0	11845	2835.988300266211	2
0	11852	2836.596543243534	3
0	11853	2837.171262304857	2
0	11861	2838.265102037246	3
0	11862	2838.537545949994	2
0	11867	2839.51814240547	1
0	11874	2841.005946984708	0
0	11880	2844.903477212036	1
0	11882	2845.65895030238	0
0	11896	2849.877870230073	1
0	11897	2850.076091386537	0
0	11953	2863.456484297695	1
0	11955	2864.059825833325	0
0	11993	2872.763539000961	1
0	11994	2873.000392831329	0
0	12002	2874.675870848363	1
0	12003	2874.712840516003	0
0	12034	2881.301652852294	1
0	12036	2882.41576782998	2
0	12037	2884.122476968419	1
0	12044	2885.451867611728	0
0	12055	2886.417708939102	1
0	12056	2887.86550389478	0
0	12074	2890.452661109431	1
0	12077	2891.824617457925	0
0	12146	2908.088253693124	1
0	12150	2908.67356186807	2
0	12151	2909.186169901184	1
0	12156	2910.110415945795	0
0	12162	2910.33630233995	1
0	12164	2911.111098749736	0
0	12170	2911.389033101711	1
0	12173	2911.986038117094	0
0	12211	2918.116056111577	1
0	12214	2920.088478918191	0
0	12225	2921.048106330464	1
0	12228	2925.059575649676	0
0	12236	2926.905871646803	1
0	12237	2928.952440768885	0
0	12243	2929.38542657262	1
0	12245	2929.764510804933	0
0	12292	2941.705231276612	1
0	12296	2942.429130784768	2
0	12297	2942.514223771158	1
0	12307	2946.153160740445	2
0	12308	2946.772245877238	1
0	12314	2947.190481907552	2
0	12315	2948.527895929822	1
0	12322	2949.328461706517	0
0	12328	2949.878732306073	1
0	12329	2949.986730924628	0
0	12343	2951.055960834506	1
0	12347	2954.094156575437	2
0	12350	2954.736687004196	1
0	12355	2955.649653120003	0
0	12386	2963.543480989188	1
0	12388	2963.860687200522	2
0	12390	2963.916964097929	3
0	12393	2964.355978181576	2
0	12400	2964.875483524039	1
0	12406	2966.505618673319	0
0	12438	2969.045596945648	1
0	12440	2971.088449988967	0
0	12453	2972.068182141747	1
0	12454	2972.120191511615	0
0	12469	2975.366478730496	1
0	12476	2980.778915275697	0
0	12503	2984.582768143261	1
0	12504	2984.589667086261	0
0	12528	2989.660080306674	1
0	12530	2990.582387109712	2
0	12531	2990.980393464092	1
0	12536	2991.42424526406	0
0	12542	2992.473789286646	1
0	12544	2992.606820210356	0
0	12567	2998.995385040665	1
0	12568	2999.112649633406	0
0	12574	2999.430072026191	1
0	12575	2999.6769822804	0
0	12579	2999.855691354133	1
0	12581	2999.94862729197	2
0	12583	2999.98805909955	3
0	12586	3001.818815240884	2
0	12591	3003.136892191207	1
0	12598	3003.988298505064	0
0	12604	3004.122449866308	1
0	12605	3004.683720885585	0
0	12619	3007.110624059414	1
0	12622	3007.58345236713	0
0	12641	3011.125249467768	1
0	12644	3011.859010044096	2
0	12646	3013.054742667008	1
0	12652	3014.247387138605	0
0	12699	3029.979051135342	1
0	12700	3031.724789835761	0
0	12742	3048.401643157015	1
0	12743	3048.581679855795	0
0	12749	3049.985755215478	1
0	12750	3050.076324952666	0
0	12784	3052.443656148139	1
0	12787	3053.343403646291	2
0	12788	3053.414265306297	1
0	12795	3055.04958630225	0
0	12799	3055.424938367961	1
0	12802	3055.884925356218	0
0	12840	3064.602284329014	1
0	12843	3066.09799040569	0
0	12850	3066.384077836814	1
0	12851	3066.425337218633	0
0	12857	3066.521138077467	1
0	12865	3068.671372528627	0
0	12902	3074.197045552641	1
0	12904	3074.295709108217	2
0	12905	3074.945584315694	1
0	12911	3075.075822276189	2
0	12913	3075.135761212391	1
0	12918	3075.243675702453	0
0	12941	3079.881928752346	1
0	12943	3080.382966194456	2
0	12944	3080.966073878394	1
0	12959	3086.142105254212	2
0	12960	3087.006623931972	1
0	12965	3087.373521604657	0
0	12982	3089.096269157102	1
0	12984	3089.448647820672	2
0	12989	3092.459974729719	1
0	12995	3093.686739953737	0
0	13007	3094.310763777544	1
0	13011	3094.927697873678	2
0	13014	3096.221533125499	1
0	13020	3096.247165615534	2
0	13023	3097.039174267864	1
0	13029	3098.247937800433	0
0	13133	3123.597421108722	1
0	13136	3124.139277469741	0
0	13143	3125.196278593903	1
0	13144	3125.682124412838	0
0	13153	3126.89171745652	1
0	13156	3129.035496482854	0
0	13191	3141.331201955593	1
0	13193	3141.529564507489	2
0	13194	3141.601716489766	1
0	13201	3144.05192356797	0
0	13289	3161.310362063692	1
0	13291	3162.302673814873	2
0	13296	3163.164803747034	3
0	13297	3163.33328131948	2
0	13302	3165.004052278521	1
0	13309	3166.583240166791	0
0	13323	3168.752053474629	1
0	13324	3168.764554330791	0
0	13344	3173.50745039248	1
0	13348	3173.780236918138	2
0	13350	3174.564533089593	3
0	13352	3175.308167610583	4
0	13353	3175.538205246737	3
0	13358	3176.170901229232	2
0	13363	3176.230848575817	1
0	13372	3177.206243295507	2
0	13374	3177.262899689061	1
0	13380	3177.671534756938	2
0	13382	3177.786688097348	1
0	13388	3178.607145981012	0
0	13403	3181.660107580574	1
0	13406	3183.101289203993	2
0	13407	3183.210904092886	1
0	13413	3183.79227562103	0
0	13426	3185.876184605494	1
0	13430	3187.161095151318	2
0	13431	3187.509024074066	1
0	13438	3188.717042682379	2
0	13439	3188.884189119837	1
0	13445	3189.843504233794	2
0	13446	3191.442622247553	1
0	13452	3191.607072094273	0
0	13481	3199.475701234964	1
0	13483	3199.780053944647	0
0	13514	3204.28938013961	1
0	13516	3204.298669382661	2
0	13518	3206.555014537546	3
0	13519	3206.594918833992	2
0	13525	3206.596345649322	3
0	13526	3206.725681309873	2
0	13532	3206.768864662813	3
0	13534	3207.574497977963	2
0	13539	3208.302609254182	1
0	13543	3208.47398901048	2
0	13546	3208.973494182352	1
0	13551	3209.526396215482	0
0	13591	3218.595801275073	1
0	13592	3218.813153737185	0
0	13662	3242.111204260309	1
0	13664	3242.559171103855	2
0	13665	3242.87672492862	1
0	13671	3243.728134190383	0
0	13699	3249.429179591725	1
0	13702	3249.674051968583	2
0	13706	3251.317378641976	1
0	13712	3252.700267540158	0
0	13772	3267.819085067703	1
0	13776	3270.555677496571	0
0	13832	3289.970624914613	1
0	13833	3290.85410887442	0
0	13839	3290.912254757891	1
0	13841	3293.447507694703	0
0	13862	3297.102419803961	1
0	13866	3298.083786066726	2
0	13867	3298.527936546971	1
0	13872	3299.050047981573	0
0	13880	3300.050470415486	1
0	13881	3300.424068398118	0
0	13887	3300.7142244594	1
0	13891	3301.263051217052	2
0	13893	3302.563351315983	1
0	13900	3303.300665163442	0
0	13906	3303.585983827514	1
0	13909	3304.55458923244	2
0	13910	3304.576339483275	1
0	13916	3305.062853876544	0
0	13951	3309.461151601537	1
0	13958	3312.675242279796	0
0	13975	3315.19042874857	1
0	13977	3315.306300735752	2
0	13979	3315.386363634642	3
0	13981	3316.051799488739	4
0	13983	3316.310838426194	5
0	13985	3316.484626999361	6
0	13986	3317.637214876648	5
0	13992	3317.946231935779	4
0	13998	3318.073698069654	3
0	14007	3320.291364401855	2
0	14012	3320.695253842381	1
0	14017	3321.022499822275	0
0	14021	3321.630061420971	1
0	14026	3323.744595533797	0
0	14040	3324.905790596655	1
0	14044	3326.027873322838	2
0	14046	3328.548108118722	3
0	14051	3329.602273647099	2
0	14055	3330.243487162156	3
0	14057	3331.194951614667	4
0	14059	3332.768710067687	5
0	14062	3333.239452392895	4
0	14066	3334.044463732197	5
0	14068	3334.709355502055	6
0	14076	3335.799652297794	7
0	14077	3335.807701810494	6
0	14082	3337.31345935575	5
0	14086	3337.840149350195	6
0	14088	3338.055188657577	7
0	14092	3338.649247868555	8
0	14097	3339.203934837318	9
0	14098	3339.222212675033	8
0	14103	3339.238026702466	7
0	14107	3339.757059836991	8
0	14110	3340.512196906525	7
0	14122	3343.044515876464	6
0	14129	3343.621864085569	5
0	14136	3346.05875260417	6
0	14137	3347.001221893131	5
0	14143	3347.563730062285	4
0	14149	3348.073357016935	3
0	14154	3348.643592744995	2
0	14160	3348.834419826687	3
0	14161	3348.960310770885	2
0	14167	3349.346119461211	3
0	14169	3349.873929372568	2
0	14174	3350.099234439639	1
0	14180	3351.388198406174	2
0	14184	3352.172165092186	3
0	14190	3353.613704809395	4
0	14194	3355.127227206324	5
0	14195	3355.23356015753	4
0	14202	3358.979307016229	3
0	14210	3362.012625705052	2
0	14215	3362.243894731477	1
0	14222	3363.378522972448	0
0	14237	3365.827327648474	1
0	14240	3367.354320152103	0
0	14251	3367.738428147107	1
0	14252	3368.81600160093	0
0	14279	3375.055679025992	1
0	14282	3375.348387762607	2
0	14283	3376.015543659648	1
0	14289	3376.722663740595	2
0	14291	3377.674730926888	1
0	14299	3380.651885857403	2
0	14301	3381.537253110628	3
0	14302	3382.07302816685	2
0	14309	3384.571318010937	3
0	14310	3386.178260419134	2
0	14315	3386.267587468378	1
0	14322	3388.393880107437	0
0	14338	3389.456900621512	1
0	14339	3389.613965939156	0
0	14353	3394.465994606256	1
0	14355	3395.485576463412	2
0	14357	3396.303739610829	3
0	14364	3400.552376652546	2
0	14370	3400.830798467862	1
0	14378	3402.500239899542	2
0	14380	3402.568447559873	3
0	14382	3403.060586267658	2
0	14388	3403.109834924781	3
0	14389	3403.535799665433	2
0	14395	3404.718885094955	3
0	14396	3404.847306500193	2
0	14400	3406.946217941151	3
0	14404	3408.400101993186	4
0	14406	3408.932016281709	5
0	14413	3414.263104087777	4
0	14418	3415.016455922489	3
0	14431	3416.625575747729	4
0	14435	3417.649866322514	3
0	14442	3418.57713173673	2
0	14451	3419.07028428278	1
0	14458	3421.746664247413	2
0	14459	3421.988238657536	1
0	14464	3422.098322966092	0
0	14470	3424.030081988737	1
0	14471	3424.233994719465	0
0	14475	3425.311612123308	1
0	14480	3425.866567566715	2
0	14482	3427.094798565167	1
0	14487	3427.824801091552	0
0	14518	3430.380183488976	1
0	14519	3430.771423769651	0
0	14542	3437.62968197741	1
0	14544	3440.239643764723	0
0	14570	3447.981283701261	1
0	14574	3448.630414190397	2
0	14577	3449.435729949173	3
0	14579	3449.933363193497	4
0	14581	3450.679020729906	5
0	14582	3451.668753061711	4
0	14592	3454.025561405319	3
0	14598	3454.220937715846	4
0	14602	3455.849932542233	3
0	14607	3456.084968580556	2
0	14613	3456.563115493199	1
0	14624	3459.628139198638	0
0	14646	3463.773861429838	1
0	14647	3464.66158646275	0
0	14653	3465.22786394947	1
0	14657	3466.230127138085	0
0	14676	3471.796520888481	1
0	14678	3471.88479147858	2
0	14682	3474.434821240475	3
0	14684	3476.185545259844	2
0	14689	3477.480043885661	1
0	14696	3477.961935596887	2
0	14700	3478.168466325557	3
0	14702	3478.525119543233	2
0	14707	3478.670425391727	1
0	14718	3480.299378481959	0
0	14744	3484.236771473232	1
0	14752	3488.757455220757	2
0	14753	3489.688884129268	1
0	14759	3490.631350801166	2
0	14761	3491.21303484699	3
0	14762	3491.744908926627	2
0	14769	3493.833257141017	3
0	14772	3493.972478179295	2
0	14778	3494.519300488112	1
0	14784	3496.770650807786	0
0	14805	3501.876296020113	1
0	14808	3503.686669919846	0
0	14815	3504.649562942649	1
0	14821	3506.045169885608	0
0	14841	3509.613404253187	1
0	14844	3510.423411137998	0
0	14859	3512.493228282421	1
0	14861	3513.704691400384	0
0	14893	3518.702921461994	1
0	14897	3519.593116608599	2
0	14901	3521.091515990546	3
0	14902	3521.805708321335	2
0	14908	3522.678882379357	1
0	14913	3523.453138983853	0
0	14938	3528.222460665381	1
0	14939	3528.301114745526	0
0	15008	3547.704018721227	1
0	15009	3548.389726497427	0
0	15058	3559.357828451733	1
0	15063	3559.686421216521	2
0	15067	3560.051989936664	1
0	15073	3560.152776848026	2
0	15076	3562.258128189072	1
0	15081	3562.287488983383	0
0	15138	3575.737048277292	1
0	15139	3576.24929362408	0
0	15146	3577.583183865578	1
0	15147	3578.09738646145	0
0	15184	3588.93962286984	1
0	15189	3593.787877069188	2
0	15191	3593.862879571951	3
0	15192	3594.393951225386	2
0	15199	3596.155628388522	3
0	15200	3596.273321663234	2
0	15205	3596.551768694949	1
0	15210	3597.181022573297	0
0	15218	3598.461999747346	1
0	15219	3599.031888310095	0
0	15231	3600.297431949544	1
0	15236	3606.327467190693	0
0	15242	3606.794667825973	1
0	15244	3606.989864882265	0
0	15261	3612.589844517365	1
0	15263	3616.599782061548	2
0	15266	3618.949619697386	1
0	15274	3620.274433543665	2
0	15276	3620.453958368824	3
0	15277	3621.723138730261	2
0	15282	3621.727273899182	1
0	15291	3624.193098392848	0
0	15319	3633.229338642278	1
0	15320	3633.22954865093	0
0	15326	3633.967627968804	1
0	15327	3634.094316588206	0
0	15335	3635.553449256052	1
0	15336	3635.624910411995	0
0	15355	3640.452154286965	1
0	15358	3640.691829185807	0
0	15377	3651.1657001066	1
0	15379	3651.706654109932	2
0	15387	3653.933830812951	3
0	15388	3654.703607797586	2
0	15394	3654.85090495419	3
0	15396	3656.915911635187	2
0	15402	3657.499783271842	1
0	15407	3657.645873448517	0
0	15430	3661.16842738826	1
0	15435	3662.804705257145	2
0	15437	3663.202704619044	3
0	15438	3665.812871014163	2
0	15445	3666.567137611183	1
0	15450	3666.815571204391	0
0	15462	3668.021853428791	1
0	15463	3668.206560353003	0
0	15477	3670.841777525168	1
0	15481	3671.404200340051	2
0	15483	3671.734839013992	1
0	15489	3672.2238346699	0
0	15496	3672.538155461914	1
0	15498	3673.873313815865	0
0	15509	3676.863268543728	1
0	15510	3677.56766955419	0
0	15526	3679.583354338095	1
0	15531	3683.509862702673	0
0	15546	3687.797355269556	1
0	15551	3690.986206546038	0
0	15561	3692.545914354859	1
0	15562	3693.852439134308	0
0	15568	3694.017847012869	1
0	15569	3694.311678342857	0
0	15578	3696.134154298995	1
0	15579	3696.43462766863	0
0	15625	3711.098385721224	1
0	15626	3711.787819617375	0
0	15639	3712.477862283108	1
0	15640	3712.584802414556	0
0	15664	3715.998902705673	1
0	15666	3717.81660150649	0
0	15681	3722.778928860413	1
0	15683	3723.742069942023	2
0	15684	3724.578877007043	1
0	15691	3725.201593313049	2
0	15696	3726.296508334048	1
0	15701	3726.552965860511	0
0	15708	3726.806790602801	1
0	15710	3729.979051034679	0
0	15748	3739.115059504488	1
0	15750	3739.714133810183	2
0	15754	3741.579811105527	3
0	15756	3742.628131105301	4
0	15760	3744.758549861495	5
0	15765	3746.22542481123	4
0	15774	3749.273040335305	5
0	15776	3749.31159407891	6
0	15777	3749.507600118542	5
0	15783	3750.712843615654	4
0	15792	3753.900896521131	3
0	15799	3754.585774576678	2
0	15804	3755.069262238672	1
0	15810	3755.243376726183	2
0	15811	3755.72785091714	1
0	15816	3755.742134671464	0
0	15823	3760.009118761687	1
0	15824	3761.673405749347	0
0	15834	3764.531378487722	1
0	15837	3764.675787765042	0
0	15919	3781.453408987579	1
0	15921	3781.685007938857	2
0	15926	3785.031518475652	1
0	15934	3785.461871807669	0
0	15943	3787.593432411171	1
0	15946	3790.515517976353	0
0	15965	3794.703806291902	1
0	15973	3799.199677663952	0
0	15990	3802.826401303738	1
0	15993	3805.354313418279	0
0	15999	3805.468811785404	1
0	16003	3807.956854049342	0
0	16016	3810.556350576576	1
0	16017	3810.673721579599	0
0	16032	3812.284684531122	1
0	16036	3814.519860193045	0
0	16058	3817.956299542862	1
0	16060	3818.925924746772	2
0	16061	3819.342157570254	1
0	16066	3819.462129615748	0
0	16077	3820.032294641118	1
0	16079	3820.949571924602	2
0	16081	3822.383737529858	3
0	16083	3822.627587235872	4
0	16086	3825.306194464681	3
0	16091	3825.388540744794	2
0	16097	3826.389605777277	1
0	16103	3827.304327907224	2
0	16104	3827.524027933206	1
0	16111	3828.356091613956	2
0	16114	3828.61082250121	1
0	16119	3828.70566742398	0
0	16153	3838.805962042372	1
0	16154	3838.927517954987	0
0	16178	3850.658758212277	1
0	16180	3852.343527761561	0
0	16186	3853.023096980031	1
0	16187	3854.159574933556	0
0	16204	3857.601711191773	1
0	16205	3857.75389688406	0
0	16232	3859.822757714269	1
0	16235	3861.23727360061	0
0	16241	3861.46689459869	1
0	16245	3862.868440265841	0
0	16256	3863.188666706713	1
0	16259	3864.088986530635	2
0	16260	3865.840512660941	1
0	16269	3867.089193160014	0
0	16289	3868.732523806175	1
0	16291	3871.453587215256	0
0	16325	3883.922381370356	1
0	16328	3884.731126306876	0
0	16352	3892.744858441968	1
0	16353	3893.677415277294	0
0	16391	3905.675887370033	1
0	16393	3908.837027969793	2
0	16398	3910.970058049454	1
0	16404	3912.661819646708	0
0	16418	3914.369606572697	1
0	16422	3915.964129979908	0
0	16502	3942.533138417897	1
0	16503	3943.443054817502	0
0	16517	3947.977989383558	1
0	16519	3948.179233107385	2
0	16520	3948.95777785832	1
0	16526	3949.088071967334	2
0	16527	3949.955268086653	1
0	16534	3950.38211553516	2
0	16535	3952.143204501562	1
0	16539	3955.346748407475	2
0	16543	3957.626468453333	1
0	16551	3960.629177717656	0
0	16611	3973.087567814322	1
0	16613	3973.277588304458	2
0	16616	3974.683590945254	1
0	16621	3975.330411243264	0
0	16631	3976.289419008945	1
0	16632	3976.523653919239	0
0	16645	3977.193759354933	1
0	16647	3977.377814381333	2
0	16648	3977.535508946133	1
0	16654	3978.352529313847	0
0	16670	3979.17659679603	1
0	16673	3979.803067414099	2
0	16674	3980.148138796108	1
0	16680	3981.20942502659	0
0	16684	3981.496980481142	1
0	16687	3981.908752847683	0
0	16712	3988.095659622598	1
0	16713	3989.743983266345	0
0	16736	3994.919287201207	1
0	16738	3995.378039649003	0
0	16796	4010.294760880219	1
0	16797	4010.45852430969	0
0	16809	4014.797617745497	1
0	16810	4019.519121462929	0
0	16821	4021.139516436638	1
0	16822	4021.514802286079	0
0	16866	4031.186252386794	1
0	16870	4032.028519004813	0
0	16889	4037.196359380639	1
0	16890	4037.615949923625	0
0	16896	4037.78791212416	1
0	16898	4039.468327722566	0
0	16904	4040.290877160381	1
0	16905	4041.349634195869	0
0	16921	4046.113686409722	1
0	16927	4048.863839258876	0
0	16933	4049.250241883367	1
0	16937	4052.482755147276	0
0	16950	4055.161439285352	1
0	16952	4055.451520566491	2
0	16953	4055.533984565125	1
0	16959	4055.740586394239	2
0	16960	4055.762073004435	1
0	16965	4056.377097348069	0
0	17003	4063.633598772604	1
0	17004	4063.957007550303	0
0	17035	4070.807117088208	1
0	17037	4072.006447339952	2
0	17038	4073.628059984697	1
0	17043	4074.133606519581	0
0	17054	4075.95132378249	1
0	17056	4076.268504601091	0
0	17071	4077.368908958493	1
0	17078	4080.650191020116	2
0	17079	4081.079027442017	1
0	17089	4082.502721571022	0
0	17104	4086.290906139757	1
0	17106	4086.412880010022	2
0	17108	4088.420483375427	3
0	17110	4089.055963224809	4
0	17111	4089.408008202562	3
0	17118	4089.945221231121	2
0	17125	4090.407027266592	3
0	17129	4090.862772562163	4
0	17131	4091.80405036595	3
0	17138	4094.178182066093	4
0	17139	4094.238214217097	3
0	17145	4094.74269579562	2
0	17154	4095.607160453385	3
0	17157	4096.633008827121	2
0	17164	4097.117484565489	1
0	17179	4101.381034683997	0
0	17202	4103.173228969651	1
0	17203	4104.175587485871	0
0	17216	4106.062757727262	1
0	17218	4106.119810979758	0
0	17227	4106.356666470107	1
0	17233	4111.926979490993	2
0	17236	4112.40426765942	1
0	17241	4113.26884661538	0
0	17255	4115.6869085909	1
0	17257	4116.362791776864	2
0	17261	4117.392288330433	3
0	17262	4117.481411383134	2
0	17269	4117.900833734803	1
0	17275	4118.536913323456	0
0	17295	4122.01739334208	1
0	17297	4124.568248322692	2
0	17298	4125.166196085777	1
0	17303	4125.472199578973	0
0	17331	4131.636034206935	1
0	17335	4132.514921536079	0
0	17350	4135.78060925711	1
0	17354	4137.139811515798	2
0	17359	4138.822824549572	1
0	17365	4139.391685060735	2
0	17366	4140.674376677596	1
0	17372	4140.927042947148	0
0	17400	4144.297682773497	1
0	17403	4144.494651921355	0
0	17432	4151.148539800306	1
0	17433	4151.888225717248	0
0	17445	4153.857196601478	1
0	17446	4154.250655972759	0
0	17464	4157.55311135896	1
0	17466	4158.544779859997	2
0	17469	4159.569918079131	1
0	17474	4159.635931200099	0
0	17485	4159.953764599441	1
0	17488	4161.775231614945	0
0	17500	4162.703154520742	1
0	17501	4162.911927774087	0
0	17525	4165.844031170505	1
0	17531	4170.332424745669	2
0	17533	4171.031581208676	3
0	17535	4172.646057783409	4
0	17537	4172.91371405016	5
0	17540	4174.077969782569	4
0	17545	4174.58130361225	3
0	17552	4178.461671518331	2
0	17557	4180.072328040439	1
0	17564	4182.606178214399	0
0	17573	4183.319649273543	1
0	17575	4184.736147556345	2
0	17580	4187.461172392309	3
0	17581	4188.194702018412	2
0	17586	4188.689711889495	1
0	17591	4188.941112483131	0
0	17607	4192.159454947882	1
0	17612	4195.529539692709	0
0	17618	4197.470764902439	1
0	17619	4197.884263852922	0
0	17626	4198.78603553352	1
0	17627	4198.833358375657	0
0	17642	4201.957798440666	1
0	17644	4202.554344225807	2
0	17645	4202.955534792614	1
0	17650	4203.291123703562	0
0	17656	4203.307176614665	1
0	17658	4204.105512464668	0
0	17671	4207.551235873204	1
0	17674	4208.112097529102	2
0	17677	4208.280780083208	1
0	17684	4209.21738458624	2
0	17691	4214.933240685919	3
0	17695	4216.297988197537	4
0	17696	4216.594925552352	3
0	17711	4219.125419529347	2
0	17718	4220.257997572868	3
0	17719	4221.140970579368	2
0	17726	4221.411015044409	1
0	17732	4221.590499644014	0
0	17738	4222.046298071468	1
0	17740	4222.671839682039	0
0	17752	4224.99437939647	1
0	17753	4225.392343797828	0
0	17765	4228.524529189515	1
0	17767	4229.331140759106	2
0	17769	4229.389906552944	3
0	17770	4229.706109049422	2
0	17779	4230.480740831679	3
0	17780	4230.947778504612	2
0	17789	4231.78176370815	3
0	17790	4232.029132195339	2
0	17796	4233.342730226395	1
0	17803	4234.755973405484	0
0	17839	4242.0328407444	1
0	17843	4243.281150501974	0
0	17855	4243.891721475118	1
0	17856	4244.5027969081	0
0	17868	4245.301240759812	1
0	17869	4247.778601658908	0
0	17879	4249.829573855763	1
0	17884	4254.910536025664	0
0	17901	4256.551365344112	1
0	17904	4258.952835502049	0
0	17911	4259.629936135077	1
0	17912	4260.135336031251	0
0	17918	4260.270392206941	1
0	17919	4260.342484935183	0
0	17938	4262.94538017658	1
0	17940	4263.186300330604	2
0	17942	4263.233340828313	3
0	17943	4263.331658985726	2
0	17955	4267.415616788192	1
0	17960	4267.719314044311	0
0	17986	4269.866063521709	1
0	17987	4270.733550022006	0
0	18003	4276.43171124055	1
0	18005	4276.907341724731	2
0	18006	4278.967394372656	1
0	18012	4279.221887830185	2
0	18013	4279.523551593812	1
0	18020	4280.799035809853	2
0	18022	4281.438038426451	3
0	18026	4283.061151586732	2
0	18032	4284.447852994989	1
0	18037	4284.657608516039	0
0	18052	4290.535304160928	1
0	18053	4290.584118027584	0
0	18065	4291.413479175198	1
0	18067	4293.03560835395	2
0	18070	4297.547345554106	1
0	18077	4298.637203650437	0
0	18085	4298.989951591825	1
0	18086	4299.709714474335	0
0	18105	4300.824976136632	1
0	18106	4301.170180099059	0
0	18139	4308.064778141183	1
0	18140	4308.457747631927	0
0	18146	4308.799949164644	1
0	18147	4308.978153845692	0
0	18165	4313.393035656823	1
0	18169	4316.073227003193	2
0	18171	4316.502148972997	3
0	18174	4317.55740450676	2
0	18182	4318.417699836633	3
0	18183	4319.699792941846	2
0	18188	4319.841569159782	1
0	18193	4320.419541151822	0
0	18203	4322.761599916509	1
0	18207	4325.316308176859	0
0	18222	4327.265419709812	1
0	18226	4328.593082203726	0
0	18232	4329.289143523528	1
0	18233	4329.532771834685	0
0	18245	4331.129852121846	1
0	18246	4331.333733434633	0
0	18262	4333.251968657655	1
0	18263	4333.451210555566	0
0	18292	4338.910666123689	1
0	18298	4341.940516011292	0
0	18314	4343.392797554226	1
0	18315	4343.46502829963	0
0	18334	4353.914750426647	1
0	18335	4354.575096422531	0
0	18342	4356.424264035587	1
0	18343	4357.081433337102	0
0	18354	4357.50472709665	1
0	18355	4357.718867857904	0
0	18365	4358.142646158233	1
0	18367	4358.493592182235	2
0	18371	4359.321603046437	3
0	18373	4359.994224623447	4
0	18377	4362.108918000472	3
0	18383	4364.938700477268	2
0	18388	4365.846719026786	1
0	18393	4366.168896067499	0
0	18406	4369.459269768914	1
0	18410	4371.238594221022	0
0	18426	4372.597329544331	1
0	18429	4372.876252078401	0
0	18446	4378.157779063499	1
0	18451	4379.037141130203	0
0	18463	4381.315123504422	1
0	18464	4381.504189022127	0
0	18475	4382.752012829448	1
0	18476	4383.07282821193	0
0	18482	4383.105074758308	1
0	18484	4384.501892653285	0
0	18491	4384.979522196496	1
0	18495	4385.610958763793	2
0	18502	4388.174494016097	3
0	18504	4388.805408191182	4
0	18506	4390.584848338386	5
0	18507	4390.729045979677	4
0	18512	4391.244551745182	3
0	18519	4392.487065342162	4
0	18520	4392.653916310018	3
0	18525	4393.184030245424	2
0	18530	4395.14398316859	1
0	18534	4395.332640642647	2
0	18538	4395.820670243579	1
0	18544	4396.102616809858	2
0	18546	4396.225445825157	1
0	18551	4397.810295495535	0
0	18569	4400.55400137406	1
0	18572	4401.824866860217	0
0	18585	4402.824539997575	1
0	18589	4403.533193803173	2
0	18590	4403.642443236141	1
0	18596	4403.886853763607	0
0	18602	4404.018325793707	1
0	18604	4404.145352933394	2
0	18605	4405.40677115631	1
0	18610	4406.008558345301	0
0	18618	4407.111555496788	1
0	18619	4407.121935493161	0
0	18631	4409.00793512133	1
0	18633	4409.836506640619	0
0	18640	4409.918832630205	1
0	18641	4410.679191739637	0
0	18647	4411.448108139973	1
0	18650	4412.020253019693	0
0	18661	4413.142824269369	1
0	18663	4413.94905558059	0
0	18675	4415.515326478272	1
0	18676	4415.658117880733	0
0	18682	4416.02226643089	1
0	18684	4417.12930539978	0
0	18691	4418.139038153859	1
0	18692	4418.216706534861	0
0	18710	4420.288497455096	1
0	18711	4420.600291930084	0
0	18745	4427.883760103847	1
0	18749	4429.882160018519	0
0	18755	4430.084400890524	1
0	18756	4430.3278066421	0
0	18802	4449.928422550083	1
0	18804	4450.295106264233	0
0	18810	4451.781330562142	1
0	18814	4452.231471613062	2
0	18822	4454.88290223535	3
0	18824	4456.141460824901	2
0	18830	4456.188043244998	3
0	18835	4457.392198709222	4
0	18837	4458.853869471193	3
0	18843	4459.405349301524	2
0	18850	4460.850333406736	3
0	18853	4461.747324356283	2
0	18858	4461.957803981608	1
0	18866	4464.003903418949	2
0	18870	4465.113788357546	3
0	18871	4466.762661231688	2
0	18876	4466.890080581665	1
0	18880	4467.240133781324	2
0	18882	4468.092029291927	3
0	18886	4469.44397839284	4
0	18888	4470.303131485114	3
0	18893	4471.547492055517	2
0	18898	4474.265996590039	1
0	18902	4474.436713082933	2
0	18905	4474.636729234647	1
0	18911	4475.050462396159	2
0	18912	4476.738148155155	1
0	18920	4478.275353873853	0
0	18926	4478.527317890892	1
0	18928	4478.724613133354	2
0	18932	4479.51285285724	3
0	18933	4479.552987882223	2
0	18937	4479.92166589699	3
0	18939	4481.02568339307	4
0	18945	4481.352816213623	5
0	18952	4484.335755467397	6
0	18954	4484.64464346476	7
0	18955	4484.686487956854	6
0	18960	4485.121189652538	5
0	18970	4488.218521911092	4
0	18976	4488.8743791131	3
0	18983	4490.459469230965	4
0	18985	4491.463847966898	5
0	18988	4491.648227244204	4
0	18995	4493.649446526241	5
0	18996	4493.926900548043	4
0	19004	4494.264260551335	5
0	19005	4494.800583937898	4
0	19010	4494.844426606092	3
0	19021	4495.467312834126	2
0	19028	4496.206144850818	1
0	19035	4496.721967790761	2
0	19036	4497.769909605965	1
0	19041	4497.973198266434	0
0	19045	4498.263362819359	1
0	19047	4498.910803135723	2
0	19054	4501.3571513954	1
0	19060	4501.913688194127	2
0	19061	4501.925151759133	1
0	19067	4502.466300753573	2
0	19068	4502.528823059018	1
0	19077	4505.031098986999	0
0	19085	4505.750764289749	1
0	19086	4505.87111724981	0
0	19097	4507.209551309	1
0	19099	4509.04441331027	0
0	19123	4511.095242068917	1
0	19128	4512.595165879892	0
0	19149	4516.196908967103	1
0	19153	4518.817916713865	0
0	19159	4518.818465177892	1
0	19161	4519.333888295177	2
0	19164	4521.051111377779	1
0	19169	4521.084441637055	0
0	19182	4523.231973849852	1
0	19183	4523.671332277154	0
0	19200	4525.409306885173	1
0	19203	4525.678516089447	0
0	19221	4528.300092938095	1
0	19223	4530.384240445881	2
0	19224	4530.597259512008	1
0	19235	4531.82037733697	2
0	19236	4531.900875821472	1
0	19242	4532.401129915374	0
0	19248	4532.64771832828	1
0	19250	4533.973332232781	0
0	19282	4539.4556118097	1
0	19283	4541.442525454516	0
0	19332	4553.825177963369	1
0	19335	4553.912848838419	0
0	19341	4554.375598518587	1
0	19342	4554.434928780496	0
0	19348	4554.692702162376	1
0	19349	4556.081407333233	0
0	19355	4556.464580953967	1
0	19356	4556.611653170287	0
0	19408	4570.755722074688	1
0	19409	4570.868388693695	0
0	19434	4576.068790710493	1
0	19439	4576.695367955817	2
0	19443	4577.871012527668	1
0	19450	4578.257187946843	2
0	19452	4578.341429311548	3
0	19453	4578.77169338739	2
0	19458	4580.149365046803	1
0	19465	4581.076654138193	0
0	19517	4588.640667665685	1
0	19518	4589.386905721099	0
0	19524	4589.394841117238	1
0	19525	4589.645044021143	0
0	19542	4594.355463788165	1
0	19551	4598.069869382316	0
0	19559	4598.428444496032	1
0	19560	4598.762106836588	0
0	19568	4600.212293589723	1
0	19572	4601.332257398585	0
0	19617	4609.437774536256	1
0	19618	4609.576373603741	0
0	19652	4618.701656083322	1
0	19655	4621.635827787961	0
0	19665	4624.352155527859	1
0	19668	4626.914565973261	0
0	19674	4627.941987515302	1
0	19677	4629.119546973204	0
0	19683	4629.388586855954	1
0	19685	4629.783312882718	2
0	19686	4630.15957282552	1
0	19692	4630.38962852145	0
0	19699	4631.134036501866	1
0	19701	4631.950869330718	0
0	19715	4634.927954889375	1
0	19717	4636.385316837165	2
0	19718	4636.511898627978	1
0	19725	4637.011941938062	0
0	19731	4637.90515846327	1
0	19732	4638.691828751432	0
0	19743	4639.919881141663	1
0	19747	4641.00316811235	2
0	19748	4641.672022945745	1
0	19757	4645.025752056667	0
0	19769	4648.879098345385	1
0	19771	4651.198874169612	2
0	19773	4652.926532341329	3
0	19778	4656.118131676912	2
0	19784	4657.587327471249	1
0	19791	4658.860978294166	2
0	19792	4659.579670435693	1
0	19801	4660.999632564403	2
0	19804	4662.628295812433	3
0	19805	4664.588912098613	2
0	19811	4665.439333552954	3
0	19813	4669.8617436623	4
0	19814	4670.081640499318	3
0	19820	4671.089850230903	2
0	19826	4671.101737051639	3
0	19827	4672.68479875282	2
0	19833	4673.222124915532	1
0	19840	4674.155063392673	2
0	19841	4674.175131850453	1
0	19847	4674.378041776652	2
0	19849	4674.598978458067	3
0	19850	4675.434483579755	2
0	19855	4676.629028778259	1
0	19860	4678.046846220514	0
0	19873	4680.363245933797	1
0	19875	4680.681782202053	0
0	19908	4686.236784599827	1
0	19910	4687.481360857141	2
0	19911	4687.504713750912	1
0	19916	4689.083863913705	0
0	19922	4689.177055155732	1
0	19924	4689.28965040187	2
0	19926	4689.833147347794	1
0	19932	4690.153136681783	0
0	19956	4693.715541639043	1
0	19960	4695.334854553097	0
0	19964	4695.991828229752	1
0	19970	4699.32827487242	2
0	19973	4702.664136540271	1
0	19980	4703.760741138077	0
0	20010	4710.311296461464	1
0	20013	4711.157770673272	0
0	20028	4713.567313137052	1
0	20036	4716.011556923934	2
0	20037	4716.523078063716	1
0	20043	4717.453449732951	0
0	20051	4718.575667523652	1
0	20052	4718.991469585578	0
0	20065	4720.817299125351	1
0	20069	4721.179606762657	2
0	20070	4721.196316815974	1
0	20075	4721.24249476891	0
0	20118	4734.11881102846	1
0	20119	4734.896230397375	0
0	20125	4735.01083535517	1
0	20127	4735.152468986406	2
0	20131	4740.065720519861	1
0	20137	4740.587484694337	2
0	20138	4741.229086515554	1
0	20147	4742.576553849287	0
0	20154	4746.829783329591	1
0	20156	4746.842070343208	2
0	20157	4747.126682232751	1
0	20163	4748.432132985731	2
0	20164	4748.541533554276	1
0	20170	4749.219251293266	2
0	20172	4751.210411451333	3
0	20176	4751.278266796876	4
0	20177	4751.298437822855	3
0	20182	4751.562676882886	2
0	20187	4753.356939580469	1
0	20192	4754.670696912883	0
0	20212	4758.356233828	1
0	20213	4758.932519920199	0
0	20262	4770.067140055637	1
0	20267	4771.94455235683	0
0	20278	4772.282736034724	1
0	20280	4772.881808636372	2
0	20288	4774.772057271218	1
0	20298	4776.457996652875	0
0	20311	4778.201946185815	1
0	20312	4778.839045422178	0
0	20328	4784.013225085783	1
0	20330	4784.128850577641	2
0	20333	4785.273623949835	1
0	20340	4787.981785819662	2
0	20341	4789.249415660187	1
0	20346	4789.582557372849	0
0	20357	4789.743297098504	1
0	20358	4790.031191004908	0
0	20366	4790.576411017838	1
0	20370	4790.972223550526	0
0	20384	4792.890323080892	1
0	20394	4798.052203753204	2
0	20396	4799.08983354102	3
0	20399	4800.369969018883	2
0	20405	4800.868359599778	3
0	20406	4801.134731881959	2
0	20411	4801.78560528118	1
0	20416	4801.938672981908	0
0	20420	4803.209927908186	1
0	20422	4804.127403584933	2
0	20425	4804.532874279173	1
0	20431	4806.719775750104	0
0	20440	4807.426224841175	1
0	20444	4808.785898144413	2
0	20448	4813.053033653037	3
0	20453	4814.682454811076	2
0	20458	4815.604851318902	1
0	20462	4816.969049514007	2
0	20464	4817.005629370886	3
0	20469	4819.034161785515	2
0	20476	4822.197322366291	1
0	20480	4822.305920816795	2
0	20482	4823.12239571044	3
0	20484	4823.128437560406	4
0	20486	4824.6341008947	5
0	20491	4825.811115418365	4
0	20500	4832.897644894418	3
0	20505	4833.482521345747	2
0	20509	4835.540344280813	3
0	20511	4835.548535635185	4
0	20514	4836.585328931273	3
0	20523	4838.492191476539	2
0	20527	4839.315597461351	3
0	20532	4841.70451238861	4
0	20536	4844.951954176573	3
0	20543	4847.588040920604	2
0	20548	4849.382729259389	1
0	20553	4850.318546918807	0
0	20567	4853.752253212741	1
0	20568	4853.946744485929	0
0	20574	4853.951107381683	1
0	20576	4855.440420720235	0
0	20582	4855.648407082709	1
0	20583	4856.313754972193	0
0	20606	4861.362383483897	1
0	20608	4862.145373098752	2
0	20615	4867.02860404321	1
0	20620	4867.549399468521	0
0	20633	4869.959422020791	1
0	20635	4870.170000582522	2
0	20636	4870.781286039339	1
0	20641	4870.983457644579	0
0	20663	4876.07737063485	1
0	20667	4878.033608059843	2
0	20669	4878.897681500745	1
0	20674	4879.137449205299	0
0	20685	4880.758920450516	1
0	20689	4881.419339466483	2
0	20695	4883.850699417123	1
0	20700	4884.079256481198	0
0	20713	4885.385119062959	1
0	20715	4885.760996357239	2
0	20716	4885.813745779253	1
0	20722	4886.16917276402	0
0	20736	4887.188252725344	1
0	20739	4887.827551914234	0
0	20754	4891.155062841983	1
0	20756	4891.445027309725	2
0	20759	4892.016907730728	1
0	20766	4892.310148411572	2
0	20768	4892.643872426451	1
0	20773	4893.923009264851	0
0	20785	4895.830509269032	1
0	20786	4895.917203943123	0
0	20800	4897.595545969372	1
0	20802	4898.441731291019	2
0	20809	4900.555203968964	1
0	20814	4900.865642938468	0
0	20832	4903.892781531426	1
0	20833	4904.105843895125	0
0	20855	4911.474798417342	1
0	20857	4911.627072848097	2
0	20859	4912.600173545364	3
0	20861	4912.640226452643	4
0	20864	4914.204891864509	3
0	20870	4916.393634063339	2
0	20878	4916.860027141538	3
0	20883	4919.522724803617	2
0	20892	4921.845341003786	1
0	20897	4922.053878783043	0
0	20912	4923.342255462424	1
0	20914	4923.59652335986	2
0	20918	4924.313435982232	1
0	20924	4924.487090447244	2
0	20926	4925.192225726758	3
0	20928	4926.061695423987	2
0	20933	4926.675308162454	1
0	20938	4926.940243290113	0
0	20960	4931.851907264813	1
0	20962	4931.911297992795	2
0	20965	4932.526100171725	3
0	20966	4933.084771782327	2
0	20973	4935.394809609287	3
0	20975	4936.155768893085	4
0	20976	4937.062085141975	3
0	20983	4938.019167444365	4
0	20984	4939.704121372884	3
0	20989	4939.816834051198	2
0	20994	4940.594118847715	1
0	20999	4940.675925518684	0
0	21003	4943.043580298807	1
0	21007	4945.886783850783	2
0	21009	4946.130584912987	3
0	21012	4949.301246423702	2
0	21019	4954.12614678505	1
0	21023	4954.889148519912	2
0	21026	4955.100148406345	1
0	21032	4957.69447958889	2
0	21033	4959.420252858981	1
0	21039	4965.512792727515	2
0	21041	4965.613743346982	3
0	21045	4966.691773893832	4
0	21046	4966.839826638525	3
0	21053	4969.155075988122	2
0	21058	4970.31748643945	1
0	21066	4971.087317572997	0
0	21072	4971.568262044775	1
0	21074	4972.135880397742	0
0	21091	4973.810235300037	1
0	21096	4975.06367931415	2
0	21098	4975.897181121856	1
0	21103	4976.332313543637	0
0	21114	4977.086247335988	1
0	21115	4977.651636647509	0
0	21139	4980.414785684555	1
0	21141	4981.798650724514	2
0	21145	4984.759897771577	1
0	21150	4985.559313463097	0
0	21168	4991.20144096898	1
0	21174	4991.959972489093	2
0	21175	4992.876861987475	1
0	21180	4993.131726854346	0
0	21186	4993.433204253397	1
0	21187	4994.684368609889	0
0	21199	4996.022767413285	1
0	21201	4996.049697938361	2
0	21203	4996.691385463776	1
0	21209	4997.68257140548	2
0	21211	4998.738307492122	1
0	21221	4999.482096231741	0
0	21227	4999.588860021968	1
0	21228	4999.732366013007	0
0	21241	5001.326964579001	1
0	21242	5002.747016191381	0
0	21275	5007.605389449044	1
0	21279	5009.623682439203	2
0	21280	5012.131919638484	1
0	21288	5012.911158479101	0
0	21310	5017.999384614362	1
0	21313	5019.253588894068	0
0	21322	5020.26789477108	1
0	21327	5022.268808805881	0
0	21339	5027.50254701198	1
0	21340	5029.107656073127	0
0	21357	5034.210935467069	1
0	21358	5036.38559027561	0
0	21378	5041.736149753402	1
0	21380	5042.138580995755	2
0	21381	5042.72074788927	1
0	21389	5043.852001547388	0
0	21403	5046.457631172949	1
0	21404	5046.804797253918	0
0	21417	5047.926213475033	1
0	21418	5047.962415684829	0
0	21432	5053.186267735595	1
0	21436	5054.898738116379	2
0	21439	5056.108303532479	3
0	21445	5057.602560205284	4
0	21446	5057.977571534439	3
0	21452	5059.682659673575	2
0	21458	5059.97894009901	3
0	21460	5060.060574787579	4
0	21463	5060.531922918077	5
0	21464	5060.679280978276	4
0	21469	5060.790375583075	3
0	21474	5060.877573548321	2
0	21480	5061.095666355033	3
0	21481	5061.506481678327	2
0	21487	5063.040802970885	3
0	21489	5063.794401839548	4
0	21490	5064.89983125971	3
0	21500	5067.631522841568	2
0	21505	5068.423595769679	1
0	21511	5069.13643573419	2
0	21513	5069.942346663777	3
0	21516	5070.809172172186	2
0	21524	5072.71939105291	1
0	21529	5072.816601858539	0
0	21562	5080.628463899212	1
0	21565	5081.265911325722	2
0	21568	5081.568231307952	3
0	21569	5082.281996534661	2
0	21575	5082.993372883465	1
0	21580	5083.015608347933	0
0	21592	5088.001859503873	1
0	21593	5088.027973885917	0
0	21663	5107.131821189071	1
0	21665	5107.439915120659	2
0	21674	5112.434668090763	3
0	21675	5112.679820652759	2
0	21682	5113.438116979437	1
0	21689	5114.392764866625	2
0	21690	5114.777967935844	1
0	21699	5117.639121346111	0
0	21705	5118.76460332911	1
0	21706	5118.925615062247	0
0	21724	5121.738436280691	1
0	21726	5122.579609356058	2
0	21728	5122.692251959267	1
0	21735	5124.842962687059	0
0	21746	5126.712056761851	1
0	21747	5127.805563718624	0
0	21763	5130.246140482934	1
0	21764	5130.623092350168	0
0	21790	5141.883993898408	1
0	21792	5142.067289721736	2
0	21794	5142.364763541812	3
0	21801	5145.608347300124	2
0	21806	5145.698840306038	1
0	21811	5145.770220025282	0
0	21832	5151.944687659801	1
0	21834	5153.390006107451	2
0	21836	5153.811842375291	3
0	21837	5156.153689960692	2
0	21843	5156.214865413776	3
0	21851	5159.257449931321	2
0	21856	5159.57386896798	1
0	21862	5159.764719033302	0
0	21881	5163.372466581685	1
0	21882	5163.564555679627	0
0	21904	5168.213343330607	1
0	21906	5168.411929921193	2
0	21908	5168.565495705449	3
0	21909	5169.052212911811	2
0	21915	5170.280284276273	1
0	21921	5171.281795455925	0
0	21929	5171.849395003691	1
0	21931	5174.13866824933	0
0	21938	5177.082569913124	1
0	21940	5177.219446367428	0
0	21954	5178.41032164529	1
0	21957	5179.375189140685	0
0	21996	5192.686443393851	1
0	21997	5192.708746717947	0
0	22018	5195.287039744386	1
0	22019	5196.851947839276	0
0	22038	5204.140664854927	1
0	22040	5206.525053815698	2
0	22041	5207.964224178174	1
0	22047	5208.020171597572	0
0	22053	5208.170684007881	1
0	22054	5208.720629763128	0
0	22077	5213.738196455488	1
0	22084	5217.721123569736	0
0	22090	5217.763598068245	1
0	22091	5217.810604574641	0
0	22105	5221.173855457586	1
0	22111	5224.108994641783	2
0	22112	5224.691373228748	1
0	22117	5224.938105833902	0
0	22133	5230.751613425135	1
0	22135	5231.194364160963	2
0	22138	5232.031867438415	1
0	22143	5232.195107848882	0
0	22153	5236.181791266175	1
0	22158	5237.166994957331	0
0	22170	5240.496841743069	1
0	22173	5242.525220828237	0
0	22183	5243.563120950648	1
0	22189	5245.392182123137	0
0	22197	5248.250175524971	1
[...]
4	115702	27797.019820454795	0.358974783047
4	115768	27810.679896421974	8.61452162473
4	115784	27813.059799556187	10.156641484188
4	115799	27814.52217017905	1.249289068891
4	115803	27816.029950976438	1.901850468921
4	115810	27818.073911019106	0.568690840784
4	115820	27821.152713513551	2.257759407731
4	115844	27827.838891212161	4.49760032482
4	115854	27829.974787624464	5.328592093228
4	115865	27833.68712645024	3.58365972943
4	115886	27842.413632589298	1.374159947885
4	115941	27853.289267500474	1.31192805976
4	115957	27854.72875377686	2.397342594654
4	115969	27857.064758409658	4.483082994229
4	115973	27858.575471643754	3.873923424092
4	115998	27866.556547991026	5.372341517724
4	116028	27874.669100897343	10.818348666465
4	116033	27874.735664407263	8.783442604254
4	116042	27876.829048903155	9.838009098527
4	116047	27877.599903566167	8.602181523022
4	116053	27878.939045029498	9.568167163651
4	116068	27882.7261907813	11.058885162075
4	116122	27894.441047002547	20.094854445551
4	116127	27894.461797589069	17.880246527612
4	116141	27896.807389803016	16.001246142416
4	116161	27898.986310958885	17.552581816281
4	116227	27908.242583315542	26.160529372725
4	116232	27908.301093669502	16.78849448988
4	116237	27908.886236403571	13.984096080949
4	116244	27911.861079903475	15.217722711716
4	116249	27912.118120107851	14.343400074376
4	116258	27914.750655097208	15.283865796333
4	116267	27919.337121860769	15.30153697014
4	116289	27922.563539700057	16.067020608114
4	116308	27925.929125410249	15.814054988608
4	116325	27928.973418923244	15.022216435819
4	116337	27932.246199724936	8.98418265498
4	116372	27940.639368811692	16.289212538503
4	116454	27952.37803096865	27.283864944456
4	116461	27953.152918220096	24.0230466904
4	116492	27958.04567016106	26.566096564164
4	116518	27962.182931532236	19.420776385737
4	116523	27962.306297402432	11.241919859432
4	116530	27963.686817177364	9.580929606823
4	116543	27967.074837099554	6.506978400435
4	116547	27967.482700519339	5.322067461892
4	116554	27970.162276503772	0.738686483067
4	116571	27976.680800086076	0.160443614686
4	116579	27980.857620985166	2.629837173645
4	116586	27982.698450358296	0.020710648601
4	116599	27984.693213586769	1.355629526186
4	116637	27992.068510758397	0.816392854013
4	116649	27995.995650173944	2.409779298354
4	116734	28014.298952137031	12.284239003654
4	116762	28023.392150944104	19.241449614465
4	116767	28025.462570384943	18.482693633525
4	116772	28026.543735836369	13.665190729482
4	116777	28027.234165143184	12.16809973954
4	116790	28030.821604853236	10.071376451927
4	116826	28039.495665458993	11.653189078956
4	116831	28039.651598237882	11.29088723909
4	116844	28042.300390268557	7.633186794188
4	116856	28043.898195690493	4.149950976638
4	116860	28045.322422706855	4.744716958026
4	116873	28048.48659122456	1.327785571186
4	116908	28065.706824799477	1.435763280812
4	116931	28074.113343570691	1.805229373008
4	116990	28091.971030729372	19.431434011494
4	116997	28093.39545407394	15.54614639592
4	117017	28097.285972505095	18.11082923883
4	117079	28105.867288831416	4.826546184271
4	117119	28114.582701137337	2.067184567687
4	117125	28116.235448079863	3.477921287574
4	117144	28120.373041158516	1.029686223925
4	117159	28123.319269449495	2.501270166066
4	117200	28134.696507704059	3.578302497448
4	117207	28136.579542535212	4.503034444
4	117220	28138.287829435885	4.356907409301
4	117231	28144.114304310076	5.907402948391
4	117263	28148.586893610286	1.81230202139
4	117290	28157.135349342506	0.087385861353
4	117341	28169.601330372576	1.954825735256
4	117345	28170.870744912923	2.909711946935
4	117353	28173.831562839673	0.770797492682
4	117360	28175.516475250532	0.608559602507
4	117394	28189.911325506934	1.502792500751
4	117404	28191.022316648297	0.726488334118
4	117416	28192.342443153668	0.823004882575
4	117426	28194.342790807001	0.960718923528
4	117443	28198.559092948628	2.234149138161
4	117466	28202.76835743701	6.347029890397
4	117471	28202.897785778616	2.576777296072
4	117494	28212.587486802897	11.524208247548
4	117537	28222.393990632937	17.193433648108
4	117547	28227.055181288711	20.825975978785
4	117561	28229.475219745497	23.002883255643
4	117595	28232.839004675166	25.245418695925
4	117768	28290.159363595618	80.844499478493
4	117784	28291.902693374592	80.086782446658
4	117789	28292.032068513544	76.939956546752
4	117794	28295.079274811756	73.185758818391
4	117804	28296.936976455561	69.984516107226
4	117818	28301.954886239563	72.657222954281
4	117828	28302.854892743706	71.553282900494
4	117836	28304.40552001962	71.122157694251
4	117850	28308.682255022109	72.594998065883
4	117920	28324.33352790288	88.239006178528
4	117925	28324.658740563787	81.257461221243
4	117930	28325.238883701491	72.721384829676
4	117937	28327.675022942917	71.577668912627
4	117944	28328.098833010234	57.41796049761
4	117956	28328.424556075079	24.603021937975
4	117968	28330.203523201139	24.323562448561
4	117973	28331.252660933416	25.167490806403
4	117986	28336.317545138969	17.52925137646
4	118013	28338.338230982315	18.060305677398
4	118029	28342.362363229328	6.791074172001
4	118040	28343.785015136697	7.210087322702
4	118072	28350.082731495225	0.362067488926
4	118079	28352.966327798546	0.184349051547
4	118086	28354.498937712717	0.561016827765
4	118110	28362.305960745968	0.716854977003
4	118117	28365.35804855754	2.646790367316
4	118156	28375.110031919905	1.943659958196
4	118170	28381.276474629355	5.278473913068
4	118185	28383.762862489615	4.667533438076
4	118220	28396.72276224973	1.696821692208
4	118263	28406.02670264158	8.62157171292
4	118288	28409.627882559725	8.857375540262
4	118293	28413.880353109406	12.535251438803
4	118348	28426.31602336686	1.61031349469
4	118377	28433.859404053986	5.240169478858
4	118424	28445.816390605892	17.017916178274
4	118433	28446.541640182248	12.200905266094
4	118446	28449.550235480955	7.846410387643
4	118461	28455.522689717503	0.220057341051
4	118469	28463.62375377679	3.647375841643
4	118476	28464.261282766042	0.607314409724
4	118492	28471.3666338799	0.718179925669
4	118502	28473.763459456669	1.891219261986
4	118512	28474.298376491907	1.714513127865
4	118517	28475.683311989901	1.624042186208
4	118524	28476.849409012179	2.637593953108
4	118539	28485.085062375571	2.261912634788
4	118574	28492.555546784314	7.437621106002
4	118585	28495.378064310898	9.814656760229
4	118639	28509.018971161218	22.640160375706
4	118668	28516.6191090956	25.760522549097
4	118673	28516.83864381534	20.932588900393
4	118680	28518.02231413984	20.369067241292
4	118959	28584.647304958241	79.807582520065
4	118965	28585.056444315679	65.645582304676
4	118971	28585.812527743521	63.745521797043
4	118980	28587.222635558981	58.508672485524
4	119000	28594.340439058843	64.938207503851
4	119025	28600.493364869647	69.436677246661
4	119030	28600.642454574473	66.750315395667
4	119035	28600.780359364869	61.531013050775
4	119045	28603.361534142059	49.831720276436
4	119061	28605.01904365092	43.086328723734
4	119071	28607.046674391397	43.216386359978
4	119081	28609.025632079303	43.581828926195
4	119088	28610.882653974605	36.302480642909
4	119102	28613.40337848682	34.147232028366
4	119115	28615.543598819505	32.89953165728
4	119122	28616.856353869725	30.08759032462
4	119132	28620.09345710106	31.264954836859
4	119144	28620.558774970205	13.682779824077
4	119152	28621.68681515159	9.111942141885
4	119157	28622.160654071065	7.595398761424
4	119162	28622.782531030336	2.593454138163
4	119166	28626.513822842123	5.501336960737
4	119186	28631.578462392384	3.464085934851
4	119196	28634.60875222019	3.554917424281
4	119206	28640.817831598284	1.049992016726
4	119221	28645.493912039809	3.683461522075
4	119236	28648.747115157014	4.686203030012
4	119253	28651.519589098471	4.935894074953
4	119274	28656.380586844535	9.225957246168
4	119351	28671.296414854595	22.783714915291
4	119364	28673.737537271018	21.690324969752
4	119412	28681.849288969352	28.126609148837
4	119424	28685.226233264276	29.302661436495
4	119433	28685.912325579424	20.845843568015
4	119445	28689.154457271591	22.929924566879
4	119455	28693.312195977351	17.08268993603
4	119474	28694.149007603225	16.487498215065
4	119485	28696.270424733155	10.892740463316
4	119516	28701.375758781462	7.25032679083
4	119528	28703.902168162073	8.63591098274
4	119539	28707.332196408813	10.492464188535
4	119567	28712.270991750997	14.595893658311
4	119579	28714.206517132573	11.693749080439
4	119605	28716.51629147913	7.890402055136
4	119609	28716.849085747701	2.896826168907
4	119617	28719.600958128526	2.366605004192
4	119637	28729.178360754247	1.868767936588
4	119661	28732.95086527508	4.931193806035
4	119681	28735.956881815691	4.32822027971
4	119694	28742.89665937639	8.770064853361
4	119721	28751.686002564949	17.170088321521
4	119730	28755.162803062078	17.827665077991
4	119737	28756.272976615174	11.966174992881
4	119753	28759.74702689073	10.110708214879
4	119773	28761.315338586528	10.787880712126
4	119778	28762.42620924939	3.253098154223
4	119797	28773.752889995331	12.98526462854
4	119839	28781.507841967794	17.352364944673
4	119846	28783.079762866968	14.311954344439
4	119857	28783.726768329781	6.585595080982
4	119862	28785.644645211521	6.612837608554
4	119872	28797.364470873696	2.265358970717
4	119907	28808.905621634678	1.268658101505
4	119911	28809.269721964952	0.923668026183
4	119933	28816.709192575965	3.22547819447
4	120027	28833.582853807855	15.252227381318
4	120032	28833.849949562061	14.617701117923
4	120037	28834.100377701551	14.068209446699
4	120044	28836.841684396408	15.455535042921
4	120049	28837.435627072182	14.442059250775
4	120063	28842.952691004864	19.354717275033
4	120102	28851.831436375101	28.007074739971
4	120109	28853.474715325805	28.89050306607
4	120114	28854.046878769518	16.145874547741
4	120119	28854.782961344706	16.167059548641
4	120127	28858.594759919429	12.137145802184
4	120137	28858.76492274013	9.234396602367
4	120141	28859.075644317611	7.369839427403
4	120149	28862.952865192246	2.15377005243
4	120213	28886.05509575438	4.673824258802
4	120223	28890.386074623523	8.547346460092
4	120232	28891.780873391104	5.113898945604
4	120252	28896.077226972156	0.039305783633
4	120259	28898.199302033478	0.757890606683
4	120308	28904.546013614321	3.86286056784
4	120330	28913.842051889597	0.563491418799
4	120343	28916.645245879546	2.748791930651
4	120356	28923.067218840337	8.835899680242
4	120371	28927.21804026852	0.852635761654
4	120386	28932.185836677882	2.932559216269
4	120390	28932.790342089214	2.438727331252
4	120401	28936.635391146729	1.622879547967
4	120418	28938.861000905402	1.740324378509
4	120466	28947.769736184384	3.347055420922
4	120542	28968.896102192766	24.425715680988
4	120586	28977.052792405152	31.534773568689
4	120610	28982.203736941032	36.683508805775
4	120642	28990.172968579393	39.880398784606
4	120647	28990.184488777447	35.064027105145
4	120655	28992.496611018372	36.301207526686
4	120673	28995.403671286833	22.599602791879
4	120715	29003.86627532499	8.657688161086
4	120723	29007.407957565943	3.911269022676
4	120738	29012.862891380652	2.025082920383
4	120742	29015.948883033667	4.893909562872
4	120754	29019.766513923924	2.472744128345
4	120769	29021.687793126323	2.955979568624
4	120816	29036.13771933128	3.971021800651
4	120836	29038.940696826582	1.352145376601
4	120844	29043.666250033715	5.157008052036
4	120889	29053.315733420352	7.385154624424
4	120896	29056.331639475625	9.103109466464
4	120908	29058.548101429096	7.306829925501
4	120917	29060.36616651973	8.538944368057
4	120928	29062.947978130495	10.474221822148
4	120935	29063.928212547282	4.600484472251
4	120947	29067.607050730502	2.958433220433
4	120961	29068.69899817391	0.819868845849
4	120969	29072.69834844689	2.389359393285
4	121030	29082.653827903515	1.744098676625
4	121078	29091.413700186826	9.926348425165
4	121090	29093.712486043459	7.960131821394
4	121098	29094.448527421671	8.317734848731
4	121149	29107.122291476239	20.769683559285
4	121156	29110.292688980329	23.887731640909
4	121175	29113.892891070589	25.440339577331
4	121186	29118.456501955818	23.879068566267
4	121237	29127.809477179019	32.493110666815
4	121266	29134.455241240953	33.639629474182
4	121273	29136.011603224605	33.430660447008
4	121302	29141.486849953246	22.782607044126
4	121307	29142.233394124395	20.531025446714
4	121316	29144.588652922724	18.427710012174
4	121484	29178.547170060308	48.810291696642
4	121496	29180.344257424162	49.392680483738
4	121501	29180.497738849873	48.114681108657
4	121506	29180.977451427628	43.712708075636
4	121513	29182.18762318302	36.655937360839
4	121533	29195.661825082755	48.425530335159
4	121581	29203.467335581506	55.739670425181
4	121598	29207.635676565665	55.932904777855
4	121608	29208.529095763797	54.589861827425
4	121614	29211.216954257255	55.178273441511
4	121620	29213.196008149625	55.691617830637
4	121625	29213.430112927269	55.505827558661
4	121633	29218.01774700062	52.389611173681
4	121646	29221.654487823571	53.994253115816
4	121654	29222.944865410763	47.913740486459
4	121665	29225.890969391824	50.083083907173
4	121670	29226.381189091588	47.97242458358
4	121675	29226.963005869093	44.894895499984
4	121684	29229.822168285212	44.35793531193
4	121699	29231.513034262029	40.452076494082
4	121719	29241.723689590855	46.834331321481
4	121838	29268.433980734636	65.058511751018
4	121855	29269.491959136714	64.88122868178
4	121860	29269.61553670014	62.873531913467
4	121867	29271.359988936159	51.520905015578
4	121936	29288.450082697287	59.139374701947
4	121948	29291.020698985392	59.763461554806
4	121960	29292.340021954201	60.396496236453
4	121968	29294.067934230581	45.811878580661
4	121981	29296.783765387393	42.57198536286
4	121996	29299.116177487987	44.085241351633
4	122036	29306.832696547981	51.644932557566
4	122044	29308.556687963605	49.381007037916
4	122058	29310.361498268626	48.794382589625
4	122068	29312.371469018345	39.789308151629
4	122073	29312.618944472569	30.52986625556
4	122082	29314.331419873583	27.974868236718
4	122093	29317.702151023649	25.847506776368
4	122154	29331.605170897552	34.263491949843
4	122163	29334.802279275252	30.540104698158
4	122182	29340.55753836009	31.316971339176
4	122187	29341.818324318222	32.257803657611
4	122196	29344.416395097452	33.284351096929
4	122217	29350.017563358653	36.647518032853
4	122256	29355.15883108176	41.70968507205
4	122267	29358.743262243652	44.102945978035
4	122325	29376.130200297171	50.335098956933
4	122344	29383.113001911606	54.603659156748
4	122349	29383.46808712759	47.024062614919
4	122356	29385.20362884545	46.830255399165
4	122363	29387.212300698326	48.525473321867
4	122378	29390.717030479172	47.189853416956
4	122388	29392.295057110229	45.317129257813
4	122395	29395.404415577551	41.802378425656
4	122400	29395.982273955377	41.771787325013
4	122405	29397.014383189667	41.459137810286
4	122417	29400.032970070978	43.687902967106
4	122428	29401.201330025487	41.751087789541
4	122437	29405.31466895436	20.38623272883
4	122453	29406.87301566567	16.18347126009
4	122460	29409.470353425897	16.174259632658
4	122471	29409.864591984343	12.129787877108
4	122478	29411.537067823328	12.764571629232
4	122485	29416.270541342328	5.215383063526
4	122499	29421.701637585692	0.648336394747
4	122514	29424.119348520169	0.493494868359
4	122524	29426.636464201205	2.242241651549
4	122539	29428.632496941336	0.407961025587
4	122618	29450.055295037996	19.943778311928
4	122629	29453.410739956211	17.720690993546
4	122673	29458.570750528658	19.096327946026
4	122679	29459.560457926371	13.791585355673
4	122690	29460.605741789748	3.587183703854
4	122715	29463.892686645514	5.698003498966
4	122721	29464.334511570389	4.469117117931
4	122727	29464.896690727164	2.237095399823
4	122735	29465.906749986169	0.329357778377
4	122746	29470.490869246212	2.263947533074
4	122750	29470.603491267321	1.893375151738
4	122760	29475.401115761286	4.58157799244
4	122767	29476.175415376994	3.214739288301
4	122805	29484.151243359373	2.464939476895
4	122822	29485.363275946888	3.526473464735
4	122829	29488.503441655099	6.169946695325
4	122834	29489.840747564711	6.598354222403
4	122838	29490.784091424496	4.091037786244
4	122861	29498.490267853846	1.588758618329
4	122868	29500.61433392006	3.60286684043
4	122872	29501.292406026085	2.503835373929
4	122914	29519.336817303541	3.008283441789
4	122921	29522.529672986455	5.056504915774
4	122926	29525.56730298877	4.663630357806
4	122954	29531.989009094258	1.918080419639
4	122977	29535.367968277488	5.285179465647
4	122984	29536.175270016425	1.085489379868
4	122993	29540.894158878182	5.478275942252
4	123027	29548.863006710867	3.507996402581
4	123047	29554.398728814703	8.60433985766
4	123142	29576.242842438374	29.103761884928
4	123154	29579.063387993381	26.953798825604
4	123159	29580.932868617164	20.276539177544
4	123168	29582.898479434164	20.689610230619
4	123199	29588.621388470315	15.474808271881
4	123217	29593.136559369242	9.498171964856
4	123251	29606.304727081964	0.391031323168
4	123286	29613.92087344142	3.850800919442
4	123291	29614.128934885914	3.885728534039
4	123298	29616.356537937907	5.692503782761
4	123310	29618.909988812955	0.657087955955
4	123320	29620.275126897991	1.729012420239
4	123327	29622.975895379008	2.597393655973
4	123343	29632.277937300154	5.899570298452
4	123372	29637.251972976792	2.597047183687
4	123391	29642.025767525142	4.222078318719
4	123523	29667.937314452491	19.133508544197
4	123537	29672.423792489497	20.960672469721
4	123617	29697.024147261757	41.652708312203
4	123622	29697.296491590518	33.401432086116
4	123627	29697.545346314748	19.480152197559
4	123638	29700.128400541065	21.557308043538
4	123643	29700.880430633603	18.082773632073
4	123650	29702.018528034321	14.791455148366
4	123664	29704.920809863226	13.632139716203
4	123677	29709.105853464629	15.19028984781
4	123694	29710.157117299761	12.414128519803
4	123701	29711.71218706903	13.181083793696
4	123705	29712.453718659724	10.205731814222
4	123753	29722.993605553739	5.047730346496
4	123800	29738.525283284639	7.07621812514
4	123812	29739.954669510051	4.561459829099
4	123852	29751.321208816499	5.634489219617
4	123890	29758.289910165948	0.332895036813
4	123897	29764.863311990151	3.283536481507
4	123929	29778.725677099263	4.464976287743
4	123969	29782.950922574806	3.180242211368
4	123975	29783.514686634407	1.745546573114
4	123989	29786.237503381547	2.135218272932
4	124004	29788.53521258734	3.766173330039
4	124043	29795.92123870873	10.977792163397
4	124047	29796.282689301787	9.809553662641
4	124062	29802.043245272366	0.042207706622
4	124085	29809.658797982209	3.206247365247
4	124094	29811.632305777283	4.264246759686
4	124109	29814.285306542402	5.876723477764
4	124121	29816.886946132187	7.886125858132
4	124134	29821.269198095724	10.263283009313
4	124155	29826.777690665942	13.140228246651
4	124171	29830.305900988953	12.641725948475
4	124248	29851.354399707607	26.334402076781
4	124253	29851.473732962593	22.447877043846
4	124257	29852.239456096626	10.99508094461
4	124335	29870.567528884104	7.893406838932
4	124388	29886.13300521494	7.422793240535
4	124398	29886.532804533975	6.59026500285
4	124403	29886.948978897376	3.948837914358
4	124407	29892.150619530098	7.378644326694
4	124460	29905.278935927063	7.887986673931
4	124468	29906.464806194677	8.064652043305
4	124475	29909.087009108496	10.621362199153
4	124487	29910.77848389889	1.470246490158
4	124539	29917.995706144939	5.277265953789
4	124563	29920.369079269063	5.384604108219
4	124568	29921.666542953849	6.334739052791
4	124576	29924.596422914511	8.249911365386
4	124580	29924.981342192658	6.331733397483
4	124607	29930.351674152841	3.007342951721
4	124693	29953.378440082033	2.153127980699
4	124700	29953.548947089683	0.136706349121
4	124728	29960.96194905919	1.544424155497
4	124747	29966.048596097425	0.991921721257
4	124755	29967.024364942385	0.727029172993
4	124771	29969.032949875793	0.048410589486
4	124805	29973.646830210675	2.151427867827
4	124817	29976.217130232243	4.071497513432
4	124841	29981.221526565233	6.180736393444
4	124870	29988.365496698474	12.97077523113
4	124881	29990.518767328079	2.953088237364
4	124895	29992.106250581191	1.893577581211
4	124913	29998.744155229788	1.566746941927

