version 2
run Second-n2-1-20191016-17:03:18-6176
attr configname Second-n2
attr datetime 20191016-17:03:18
attr experiment Second-n2
attr inifile omnetpp.ini
attr iterationvars ""
attr iterationvarsf ""
attr measurement ""
attr network org.omnetpp.queueing.Pizza
attr processid 6176
attr repetition 1
attr replication ""
attr resultdir results
attr runnumber 1
attr seedset 1
param **.PS.maxInventoriedPS 2
param **.U1.interArrivalTime exponential(3s)
param **.U2.interArrivalTime exponential(5s)
param **.PS.serviceTimeForInventoryU1 exponential(1.0s)
param **.PS.serviceTimeForInventoryU2 exponential(1.2s)
param **.PS.serviceTimeDirectU1 exponential(1.4s)
param **.PS.serviceTimeDirectU2 exponential(1.4s)
param **.PS.probabilityProducing 0.7
param **.CS.serviceTimeU1 exponential(1.1s)
param **.CS.serviceTimeU2 exponential(1.4s)

vector 0 Pizza.EntryQueueU1 queueLength:vector ETV
attr interpolationmode sample-hold
attr title "queue length, vector"
vector 1 Pizza.CS queueLength:vector ETV
attr interpolationmode sample-hold
attr title "queue length, vector"
vector 2 Pizza.EntryQueueU2 queueLength:vector ETV
attr interpolationmode sample-hold
attr title "queue length, vector"
vector 3 Pizza.sink lifeTime:vector ETV
attr interpolationmode none
attr title "lifetime of arrived jobs, vector"
attr unit s
vector 4 Pizza.sink lifeTimeU1:vector ETV
attr interpolationmode none
attr title "lifetime of arrived jobs, vector"
attr unit s
vector 5 Pizza.sink lifeTimeU2:vector ETV
attr interpolationmode none
attr title "lifetime of arrived jobs, vector"
attr unit s
0	0	0	0
0	7	5.441193194016	1
0	9	5.789900475303	0
0	26	27.804893653441	1
0	27	28.348642089584	0
0	38	30.035362725475	1
0	39	30.663809115488	0
0	58	33.365603681126	1
0	59	33.40716524688	0
0	87	43.855023046995	1
0	89	44.769503381071	0
0	108	53.357399814353	1
0	110	53.412772548351	2
0	112	53.517078948537	3
0	116	57.677694280607	4
0	117	59.972496401872	3
0	122	60.33452940624	2
0	127	60.610837147325	1
0	133	60.919737850644	2
0	135	61.460155939332	1
0	142	61.600135924514	0
0	166	68.097119700216	1
0	168	69.004406449632	2
0	169	70.149782887993	1
0	175	70.988408426235	0
0	187	72.613909450833	1
0	189	72.75312751017	2
0	190	74.514675122123	1
0	199	76.023226934724	2
0	200	76.244050427805	1
0	205	77.100118518879	0
0	214	78.672919569089	1
0	218	81.465088608377	0
0	229	83.614203249841	1
0	231	84.019308981083	2
0	233	84.932488849725	1
0	238	86.865264663682	0
0	247	90.463911795974	1
0	248	91.370713227896	0
0	275	100.507454608749	1
0	278	100.858585247546	0
0	294	103.065146129876	1
0	295	103.195350122032	0
0	304	104.973410340305	1
0	306	105.02125353816	2
0	310	105.961283303746	3
0	311	106.795134332827	2
0	315	108.365652345784	3
0	317	108.583627322093	4
0	319	109.151087683861	5
0	321	111.069764983484	6
0	323	111.512258684353	7
0	329	115.58555231289	8
0	330	115.773961327957	7
0	334	115.790389392645	8
0	337	116.397834673343	7
0	343	120.015555985472	8
0	345	120.4136516463	9
0	346	120.792571717861	8
0	352	120.945619926496	7
0	358	120.980886729405	8
0	362	122.002944933586	9
0	363	123.108563701423	8
0	368	123.254409465439	7
0	373	123.360034235053	6
0	378	125.189139906935	5
0	388	128.186076245521	4
0	394	130.376987302398	3
0	399	130.992200867588	2
0	404	131.060167501403	1
0	409	131.343335797173	0
0	413	132.298031515001	1
0	415	132.639198057371	2
0	424	136.190955759489	1
0	431	137.208407145774	2
0	435	139.727093956536	3
0	436	139.952578018093	2
0	441	140.134118056268	1
0	447	140.373309381907	0
0	451	140.408899753552	1
0	457	141.800410498988	2
0	459	142.623120162489	3
0	460	143.078178488143	2
0	464	143.687494217455	3
0	468	144.373312514805	4
0	469	145.973825548396	3
0	474	146.233208795513	2
0	480	148.440273239566	1
0	485	149.36570605122	0
0	492	151.078686628629	1
0	494	151.552273910847	2
0	497	152.987064500256	3
0	498	155.139305255093	2
0	504	155.388915714698	3
0	506	157.869763376608	2
0	511	157.94526451471	1
0	516	158.453650548499	0
0	522	158.707937983583	1
0	527	158.939418493016	2
0	530	160.26174893851	3
0	531	160.325630307571	2
0	536	160.495717037482	1
0	542	160.562230487963	2
0	543	161.617887336102	1
0	549	163.140432426402	2
0	554	165.505613620186	1
0	560	166.069288121284	2
0	561	167.062247525432	1
0	567	168.288348494993	2
0	570	170.411026826018	1
0	576	171.865101582389	0
0	600	175.440249987526	1
0	602	175.513440454028	2
0	603	175.940787375263	1
0	608	177.758015708336	0
0	612	177.905951184272	1
0	614	179.284338235663	2
0	616	180.791301971694	3
0	621	181.482262079096	2
0	626	181.496335659141	1
0	632	183.61003369429	2
0	635	185.104397315713	1
0	641	185.548315822292	0
0	655	188.87542777142	1
0	658	191.313460737102	0
0	664	191.492351077993	1
0	666	191.564872905101	2
0	670	193.362340945566	1
0	675	194.308938247144	0
0	698	198.63892251762	1
0	699	199.004173495035	0
0	705	199.443613299276	1
0	706	199.952826335781	0
0	719	201.798724711019	1
0	721	201.951692148983	2
0	724	202.499414283003	1
0	729	202.499856597312	0
0	743	205.361278024921	1
0	747	206.066519874397	2
0	748	206.157608961497	1
0	754	207.687194577124	2
0	756	208.866246712656	1
0	761	208.907113193256	0
0	767	210.3389072563	1
0	770	210.881820425929	0
0	792	213.931460793266	1
0	793	214.34444498633	0
0	799	214.482619269206	1
0	803	215.590289108518	0
0	814	217.945196356758	1
0	818	218.904481801617	0
0	834	222.516243598585	1
0	838	222.777974945391	2
0	843	223.777724334817	1
0	850	224.239281990624	0
0	856	224.537900017146	1
0	857	224.76144461089	0
0	874	228.207184864034	1
0	876	228.77807565568	0
0	890	230.735569784329	1
0	891	232.691169373038	0
0	901	236.210514943078	1
0	903	238.09869674379	2
0	906	238.949826071841	1
0	912	238.990352133633	2
0	914	239.669733807504	1
0	920	239.926517170803	0
0	935	241.067299735367	1
0	938	241.33173704204	0
0	968	247.703260958109	1
0	969	248.448793240419	0
0	1019	264.842551154563	1
0	1024	267.416813840581	0
0	1042	269.254694540928	1
0	1043	269.540448874073	0
0	1049	272.120295499331	1
0	1050	272.327681478274	0
0	1054	273.191384823313	1
0	1056	273.654357322728	2
0	1058	274.991158263709	3
0	1067	281.193464671395	2
0	1073	281.938425684049	3
0	1074	282.015656314404	2
0	1081	284.62079217326	1
0	1088	286.906084684221	2
0	1089	287.365222151807	1
0	1095	288.037358488325	2
0	1097	289.546537360151	1
0	1102	290.281997025654	0
0	1116	292.94525614107	1
0	1118	294.946190214756	2
0	1120	295.630305095281	3
0	1122	296.598558285912	4
0	1124	297.452549787592	5
0	1128	298.218738437163	6
0	1131	299.718591608422	5
0	1136	300.408290947002	4
0	1143	302.171022655013	3
0	1149	303.161028376208	2
0	1155	303.688672038132	1
0	1165	305.838737629917	2
0	1166	306.261867326401	1
0	1172	307.175518442591	0
0	1198	312.406157253451	1
0	1199	312.589207363432	0
0	1206	313.878382189772	1
0	1207	314.187879058151	0
0	1213	315.136104384575	1
0	1215	316.110825457358	2
0	1216	316.24470169156	1
0	1222	317.790709066207	2
0	1223	318.155761765141	1
0	1235	320.994805784287	2
0	1236	320.996816698071	1
0	1241	321.129142139379	0
0	1248	323.625725866365	1
0	1249	324.634721637176	0
0	1303	336.977833347432	1
0	1305	339.962863111349	0
0	1350	357.787940382777	1
0	1352	358.264197429633	2
0	1354	359.689375125762	1
0	1359	360.658334425258	0
0	1365	363.911679442798	1
0	1367	364.842029828088	2
0	1370	366.443586324061	1
0	1375	369.101813054305	0
0	1383	369.665265760811	1
0	1385	370.443929164335	2
0	1386	371.894199958699	1
0	1391	371.92878180382	0
0	1438	393.007573813166	1
0	1439	394.355014607675	0
0	1454	398.483606671356	1
0	1457	400.017089834848	0
0	1503	413.047675155211	1
0	1504	413.162173922293	0
0	1515	414.335354902072	1
0	1516	414.370224703702	0
0	1522	416.398342183878	1
0	1526	416.986581571085	2
0	1528	417.411565381302	1
0	1534	418.404117762676	0
0	1561	424.885012721701	1
0	1563	427.667674538158	2
0	1565	428.21938279931	3
0	1566	429.673886341003	2
0	1572	431.278519032915	1
0	1579	432.356865456772	0
0	1619	444.318009748855	1
0	1621	445.064294843694	2
0	1625	446.929119983361	3
0	1629	449.612116069073	2
0	1635	449.956947418712	3
0	1638	450.297807465653	2
0	1646	451.585094186586	1
0	1652	452.141149672293	0
0	1665	456.082521448934	1
0	1669	459.673881679051	2
0	1670	460.26633472155	1
0	1678	462.975217890782	0
0	1690	463.876406456507	1
0	1693	465.580869405	0
0	1704	466.799664578212	1
0	1706	467.300507279374	0
0	1725	469.26622194335	1
0	1727	470.17738601313	2
0	1728	470.569922965099	1
0	1733	471.096215324237	0
0	1743	471.85185755397	1
0	1746	472.280379397909	0
0	1759	472.959149817347	1
0	1760	473.001438908017	0
0	1773	474.379173871626	1
0	1776	474.931253691462	2
0	1777	475.477782443652	1
0	1785	478.220018170473	0
0	1794	478.403987224562	1
0	1798	479.607706272461	0
0	1814	482.280863530125	1
0	1818	483.973446502578	2
0	1819	484.533634361564	1
0	1825	484.972222862975	0
0	1836	485.527006807382	1
0	1838	486.990848401707	0
0	1909	504.364224496206	1
0	1912	505.273828311365	2
0	1913	505.738018278441	1
0	1918	505.863816901689	0
0	1924	506.598947417525	1
0	1925	507.567779877381	0
0	1931	509.350669715965	1
0	1934	512.398488112592	0
0	1940	514.008943645116	1
0	1946	517.48941605666	2
0	1950	518.763411336481	1
0	1955	519.301081511117	0
0	1967	522.130443810812	1
0	1968	522.178028931112	0
0	1988	527.205566029554	1
0	1989	527.492875724526	0
0	1997	530.991738653438	1
0	2002	531.677242255483	0
0	2011	532.603268518873	1
0	2014	533.823566504137	0
0	2037	537.9446735195	1
0	2038	538.502001930569	0
0	2042	538.911841451411	1
0	2044	539.103346012094	2
0	2046	539.112699154443	3
0	2053	542.669173388403	2
0	2059	542.773862599765	3
0	2063	543.364340271477	4
0	2065	544.005507801414	5
0	2067	545.0191163635	6
0	2068	545.029580936086	5
0	2074	545.406544111116	4
0	2080	545.693453070079	5
0	2082	545.81621709615	6
0	2083	545.837487983393	5
0	2093	547.650145576268	6
0	2094	548.648319205365	5
0	2099	548.923718765049	4
0	2105	548.944591436243	5
0	2108	550.078574744973	6
0	2112	551.511944446278	5
0	2118	553.200000923664	4
0	2125	553.754854181159	5
0	2127	554.178995318282	6
0	2128	554.374559459734	5
0	2135	554.581290839074	6
0	2138	557.014922599921	5
0	2144	557.371539561091	6
0	2146	559.479318162394	7
0	2147	561.800643741799	6
0	2154	563.836602614561	5
0	2162	566.983204587588	4
0	2167	567.134514880286	3
0	2173	567.862562271637	4
0	2174	568.597269546874	3
0	2178	568.732172230081	4
0	2182	572.351359832895	5
0	2188	574.68264846442	6
0	2189	576.477972002269	5
0	2193	577.6198345403	6
0	2197	579.242376811415	5
0	2202	579.313379901336	4
0	2207	582.020144300797	3
0	2212	582.130621872195	2
0	2216	583.079903389252	3
0	2220	584.759682010552	4
0	2225	586.68062344354	3
0	2229	587.415982735599	4
0	2234	589.696528583711	5
0	2235	590.482269516317	4
0	2240	590.79096247752	3
0	2248	594.776281039605	2
0	2254	595.621849866204	1
0	2262	596.485755575794	2
0	2264	597.22384156446	3
0	2266	597.551477196204	4
0	2269	598.704409703015	3
0	2278	599.089013678473	2
0	2282	600.026935185963	3
0	2284	600.034584535789	4
0	2287	600.522716632	3
0	2292	604.02876419819	2
0	2297	604.500577770651	1
0	2301	604.782656399034	2
0	2307	605.252709806102	3
0	2308	605.401599183469	2
0	2314	606.417737271089	3
0	2315	606.500911268768	2
0	2320	607.462411059911	1
0	2325	608.617389713854	0
0	2358	613.902784989102	1
0	2359	614.060373027892	0
0	2365	614.841374923451	1
0	2366	615.046210702066	0
0	2373	615.891276520214	1
0	2377	617.217161651919	0
0	2391	621.691724355318	1
0	2393	623.637666672502	2
0	2394	623.762076290333	1
0	2400	624.618977204322	2
0	2402	626.78349203016	1
0	2407	626.798741515368	0
0	2421	628.060372209264	1
0	2424	628.636529176257	2
0	2426	629.540161466624	1
0	2431	629.747029908734	0
0	2455	633.0674335068	1
0	2457	633.245584389878	2
0	2459	634.053929893381	3
0	2460	634.385993734119	2
0	2467	634.927227545768	1
0	2472	635.126417117037	0
0	2480	637.050067542578	1
0	2481	637.216573493816	0
0	2487	637.659919129532	1
0	2491	639.340661862897	2
0	2495	639.869122473483	3
0	2496	640.359001066168	2
0	2503	641.126783183608	3
0	2504	642.420435209346	2
0	2510	643.556134010879	3
0	2511	643.650838469017	2
0	2517	644.790199962078	1
0	2524	645.177755395345	0
0	2528	645.224854085676	1
0	2533	649.03088169374	0
0	2540	651.146677292745	1
0	2543	651.518757341984	0
0	2574	663.334522190428	1
0	2578	665.932459797545	2
0	2584	667.080043963972	3
0	2585	667.256740465618	2
0	2591	667.389009701353	1
0	2598	668.922262107065	0
0	2638	681.329422367414	1
0	2640	681.800437186087	0
0	2657	683.566974839664	1
0	2658	684.192165205902	0
0	2680	694.304759642254	1
0	2683	697.40874894824	0
0	2689	697.668915612606	1
0	2692	699.815374904801	2
0	2693	700.070017534956	1
0	2700	700.964149922473	0
0	2730	710.512178741209	1
0	2733	711.976646531302	0
0	2740	712.315722379163	1
0	2741	712.727821321117	0
0	2747	713.07476485999	1
0	2749	713.235013076152	0
0	2774	717.104458773492	1
0	2776	717.182731502083	2
0	2782	719.693013543613	1
0	2787	720.231384929197	0
0	2807	723.993073612036	1
0	2809	725.521646071793	2
0	2811	726.138054265113	3
0	2815	727.419318270375	2
0	2820	727.688250671368	1
0	2827	728.228551092959	0
0	2848	730.921144349143	1
0	2849	731.279396506576	0
0	2865	736.874619078032	1
0	2866	738.201323368085	0
0	2875	739.268744544823	1
0	2881	741.196142628058	2
0	2883	742.886355230795	1
0	2890	743.523441459264	2
0	2891	743.537266538814	1
0	2898	743.858698235004	2
0	2899	743.889204036366	1
0	2904	744.162693006041	0
0	2938	747.905440443302	1
0	2939	748.250582443997	0
0	2943	748.906835589216	1
0	2949	750.050985714529	0
0	2953	751.158190884827	1
0	2957	752.278795067944	2
0	2962	753.462224599704	3
0	2964	753.56040043509	4
0	2966	754.743130226763	5
0	2967	755.122402028171	4
0	2972	755.215733402995	3
0	2976	756.696729727729	4
0	2979	757.345587995229	3
0	2985	758.340454371112	4
0	2987	758.467533513669	5
0	2990	759.43406101547	4
0	2998	761.722416805945	3
0	3008	763.328536415971	2
0	3013	763.487801715212	1
0	3019	764.59260600899	0
0	3038	767.417575064413	1
0	3043	769.233308471387	2
0	3044	769.831069966342	1
0	3051	770.917953411256	2
0	3052	771.005539613258	1
0	3057	771.063019190092	0
0	3061	771.792740294363	1
0	3065	771.954766052193	0
0	3076	772.596660448896	1
0	3078	772.777621815808	0
0	3087	772.999117282206	1
0	3090	773.432980954026	0
0	3096	774.367820239605	1
0	3097	777.321997437025	0
0	3128	785.69647024848	1
0	3134	787.338865519112	0
0	3140	787.756490973827	1
0	3142	787.923389578872	2
0	3143	788.642026436426	1
0	3150	790.269003617493	2
0	3151	790.674810817232	1
0	3156	790.988757020198	0
0	3177	793.874665421406	1
0	3178	794.072497653959	0
0	3222	805.932220472208	1
0	3223	807.254407285524	0
0	3234	808.697514898839	1
0	3235	808.860845188213	0
0	3263	820.320432007203	1
0	3267	821.90494617067	0
0	3273	822.028659422304	1
0	3275	822.186979595316	2
0	3276	822.925789742065	1
0	3283	823.363229036737	0
0	3296	827.374654758553	1
0	3297	827.518939320901	0
0	3315	830.048158969812	1
0	3316	830.536610909803	0
0	3357	848.004593828674	1
0	3359	849.821476203816	2
0	3360	849.882833840851	1
0	3365	850.289080962685	0
0	3417	861.470057806612	1
0	3420	862.467675023268	0
0	3465	869.71241692148	1
0	3468	871.86553726475	0
0	3481	875.262631842572	1
0	3482	875.784635590269	0
0	3504	879.849534985401	1
0	3505	882.580147617163	0
0	3613	913.741815431471	1
0	3616	914.091284453361	2
0	3617	915.105507230596	1
0	3622	915.43969939608	0
0	3633	916.699662697486	1
0	3637	918.781955590545	0
0	3645	921.862814780713	1
0	3647	922.485990945603	2
0	3648	922.805613024878	1
0	3661	923.768821324932	0
0	3680	927.771833683509	1
0	3683	928.163626940784	2
0	3684	928.344849587296	1
0	3689	928.624112567957	0
0	3697	930.218130789713	1
0	3698	931.469611505166	0
0	3716	932.255158828115	1
0	3717	932.468330992871	0
0	3727	934.048810726879	1
0	3731	935.277433211979	0
0	3746	937.7662376795	1
0	3750	939.614555732837	2
0	3755	941.939091356235	1
0	3760	942.555099492593	0
0	3792	948.005665041065	1
0	3796	949.150819523722	0
0	3831	961.150028606034	1
0	3834	961.544110072559	0
0	3855	965.79313075959	1
0	3857	966.402276009625	2
0	3859	967.899821994982	3
0	3864	968.841239158967	2
0	3870	970.125838796546	1
0	3876	970.28678363284	0
0	3895	976.831874983903	1
0	3896	976.899697902235	0
0	3913	980.950913481194	1
0	3916	981.399639182338	0
0	3925	981.866981583498	1
0	3930	985.108694814477	2
0	3931	985.24852599319	1
0	3936	985.370493760888	0
0	3964	996.216321090102	1
0	3967	998.04934290047	0
0	3990	1002.955656395498	1
0	3992	1003.070643829039	2
0	3993	1003.10550929616	1
0	4002	1003.580650447541	2
0	4003	1003.90894438371	1
0	4008	1005.275389037551	0
0	4016	1005.87672189732	1
0	4018	1006.151436122688	0
0	4032	1010.719991228441	1
0	4033	1011.097784893356	0
0	4047	1018.041391574861	1
0	4048	1018.193218089825	0
0	4072	1023.048019987807	1
0	4073	1024.330898999298	0
0	4094	1026.515215924238	1
0	4098	1029.241623062216	2
0	4099	1029.567067972696	1
0	4105	1030.247975959313	0
0	4116	1034.017271040349	1
0	4117	1034.01849951621	0
0	4127	1035.654061568237	1
0	4128	1035.770114430272	0
0	4134	1035.971117268665	1
0	4139	1039.611692836234	2
0	4140	1039.915599127298	1
0	4145	1040.428648131447	0
0	4183	1048.391891575562	1
0	4184	1050.924980424003	0
0	4190	1054.291661199185	1
0	4191	1054.396340441958	0
0	4213	1059.278482654743	1
0	4215	1059.745951998375	2
0	4216	1059.948477263867	1
0	4224	1061.066198459158	2
0	4225	1061.152725499599	1
0	4231	1061.675042981361	2
0	4232	1061.92181877415	1
0	4238	1063.479132614379	2
0	4240	1063.967932269563	1
0	4248	1067.736349732946	2
0	4249	1068.086012085726	1
0	4253	1069.179385204445	2
0	4255	1070.939295256311	3
0	4259	1072.468491105367	4
0	4260	1072.470322853078	3
0	4264	1072.76925391863	4
0	4270	1075.136538342961	5
0	4275	1078.303666839289	4
0	4282	1082.274811682316	5
0	4283	1082.282458725607	4
0	4288	1082.748085445096	3
0	4292	1083.607280528634	4
0	4294	1084.130050664161	5
0	4296	1086.028837937572	6
0	4298	1087.791678043544	7
0	4302	1088.221230342903	8
0	4303	1088.317511856253	7
0	4309	1088.8483880882	8
0	4311	1090.239846656739	7
0	4321	1090.985356434718	6
0	4325	1091.40694794178	7
0	4330	1092.14883720284	6
0	4336	1094.495835560303	7
0	4337	1094.619642943964	6
0	4344	1095.433821435058	7
0	4345	1097.420932387408	6
0	4351	1097.455004225879	7
0	4353	1097.746856835198	6
0	4359	1098.105138891941	5
0	4365	1098.433558376235	6
0	4366	1098.631926242373	5
0	4370	1099.37627097679	6
0	4375	1101.372669016587	7
0	4376	1101.432572299188	6
0	4381	1101.589823037329	5
0	4386	1102.082717433271	4
0	4390	1102.631067449656	5
0	4394	1105.913713654841	6
0	4396	1106.528816175946	7
0	4397	1106.54553022044	6
0	4402	1111.106927727072	5
0	4409	1111.910269468653	6
0	4411	1112.525035824731	7
0	4414	1113.693614660855	6
0	4420	1114.248331209258	5
0	4426	1115.148492928913	4
0	4433	1116.287513428765	3
0	4437	1116.462999556583	4
0	4440	1117.621753914107	3
0	4445	1117.984065354303	2
0	4451	1119.98595493819	3
0	4452	1120.127962246702	2
0	4457	1120.960197837783	1
0	4464	1122.859062372683	0
0	4490	1127.429353728058	1
0	4492	1127.877696817874	2
0	4497	1131.122620087743	3
0	4499	1132.146967965754	4
0	4500	1133.284804867014	3
0	4506	1134.249722532115	4
0	4510	1135.371127572477	3
0	4516	1135.765172857466	4
0	4517	1136.464368202606	3
0	4522	1136.721568175209	2
0	4527	1136.882500213077	1
0	4536	1138.035747571302	2
0	4537	1138.061930646235	1
0	4543	1138.541131601308	0
0	4565	1142.580891190246	1
0	4567	1142.965758240597	2
0	4569	1143.421896888966	3
0	4571	1143.454166832057	4
0	4572	1144.654068149211	3
0	4580	1147.268030132151	2
0	4585	1147.298318025054	1
0	4590	1147.405811241063	0
0	4598	1150.183605643022	1
0	4600	1150.846365520427	2
0	4603	1150.919910001184	1
0	4612	1155.793691916764	2
0	4613	1156.218903896341	1
0	4619	1156.394174624397	2
0	4623	1157.097086010936	3
0	4624	1157.482319641951	2
0	4629	1157.680270012129	1
0	4634	1157.896548766864	0
0	4638	1159.211405834452	1
0	4645	1162.213160074697	0
0	4669	1169.718164656296	1
0	4671	1170.060406258792	2
0	4674	1170.753058167028	1
0	4681	1171.544262745628	0
0	4700	1175.065862477803	1
0	4707	1176.992296920555	0
0	4736	1184.842811026051	1
0	4738	1186.525699961454	0
0	4751	1188.053238295996	1
0	4752	1189.934121748118	0
0	4763	1190.38988004428	1
0	4767	1193.210876744762	2
0	4769	1194.236271563089	1
0	4774	1194.471163148234	0
0	4780	1194.832836718144	1
0	4782	1195.238762397393	0
0	4788	1196.005212945365	1
0	4789	1196.199308618123	0
0	4818	1201.618684792635	1
0	4820	1202.506989333757	0
0	4828	1202.874102260471	1
0	4830	1203.43891425282	0
0	4837	1203.802860129518	1
0	4841	1204.811734989198	2
0	4842	1205.979952631897	1
0	4847	1206.228802429855	0
0	4853	1207.972034861423	1
0	4855	1208.720222509658	0
0	4880	1211.64382034049	1
0	4884	1218.064069438757	0
0	4924	1228.982889603794	1
0	4929	1231.022694281365	2
0	4930	1231.398178544858	1
0	4936	1231.736405122106	2
0	4938	1232.560091316949	3
0	4940	1232.860637716929	4
0	4942	1233.320967297811	3
0	4949	1234.812878549424	2
0	4954	1235.41956347611	1
0	4959	1235.831576349326	0
0	4963	1235.856564608577	1
0	4970	1237.193379060464	0
0	4974	1237.213215489865	1
0	4979	1237.782078763006	2
0	4981	1238.32396485312	3
0	4983	1238.444592382299	4
0	4984	1239.499555228741	3
0	4990	1241.366673202871	4
0	4991	1241.823320286198	3
0	4995	1241.859420464828	4
0	4999	1245.1546169659	5
0	5001	1246.485626900685	6
0	5007	1250.171518114296	5
0	5012	1251.936264906758	4
0	5017	1253.37324483553	3
0	5022	1256.138947630898	2
0	5028	1257.704663041316	3
0	5030	1258.599448499633	4
0	5034	1260.322538091646	5
0	5035	1263.10943270774	4
0	5039	1263.218347956013	5
0	5043	1264.995556673712	4
0	5049	1265.834379044256	3
0	5054	1266.269713280564	2
0	5064	1272.670891291484	1
0	5069	1272.766431679564	0
0	5077	1275.907792928725	1
0	5078	1276.294398388289	0
0	5084	1278.24559166573	1
0	5085	1278.973869137949	0
0	5096	1280.442496644007	1
0	5101	1282.447534886321	2
0	5106	1283.476752173567	3
0	5107	1284.004636801544	2
0	5113	1285.792806615541	1
0	5119	1286.170795643943	0
0	5166	1300.030984378525	1
0	5167	1300.092391098069	0
0	5184	1302.439837233412	1
0	5186	1303.498757744846	2
0	5190	1304.571493602879	3
0	5192	1304.788515367091	4
0	5194	1305.852409459936	3
0	5200	1306.652688691105	2
0	5206	1306.756599729337	3
0	5207	1307.137514482757	2
0	5213	1307.367614445102	1
0	5218	1308.61501293777	0
0	5249	1316.08599044925	1
0	5251	1316.422901507327	2
0	5259	1319.650833649895	3
0	5260	1319.785996918812	2
0	5265	1320.2198345357	1
0	5273	1321.109294033964	0
0	5306	1327.864063365701	1
0	5308	1330.167692188404	2
0	5313	1333.49868083365	1
0	5319	1334.870911778434	0
0	5325	1334.918032514308	1
0	5327	1335.317380363128	0
0	5364	1344.124547868195	1
0	5365	1344.234050708404	0
0	5372	1344.511813285371	1
0	5374	1345.379676087471	2
0	5375	1345.858943962718	1
0	5386	1347.680200023589	2
0	5387	1349.410683560033	1
0	5394	1351.280702960884	0
0	5400	1351.535326093145	1
0	5402	1351.589971279756	0
0	5424	1358.890108792233	1
0	5428	1359.708008480331	2
0	5432	1362.852908125863	3
0	5433	1363.690621593753	2
0	5440	1363.989162931009	1
0	5445	1364.124681964881	0
0	5454	1366.627423832112	1
0	5459	1369.09757740239	2
0	5461	1369.168905345145	3
0	5466	1369.782367657619	4
0	5467	1370.243042022472	3
0	5472	1370.422706135201	2
0	5477	1370.972893467635	1
0	5481	1371.202680638179	2
0	5488	1373.46037106145	3
0	5489	1373.561620325703	2
0	5496	1374.130332844954	1
0	5503	1374.549872192128	0
0	5530	1381.138176800598	1
0	5535	1383.876057677132	0
0	5550	1386.803833716802	1
0	5551	1386.836703583136	0
0	5576	1398.590255618423	1
0	5577	1400.152917110161	0
0	5661	1433.944399015383	1
0	5665	1435.916404248952	2
0	5667	1436.151297296524	3
0	5669	1436.89236465008	4
0	5670	1437.835487029483	3
0	5675	1438.256328802924	2
0	5681	1438.556302291187	3
0	5683	1438.605112595921	4
0	5685	1440.087316669102	3
0	5690	1440.295287168543	2
0	5695	1441.470296890561	1
0	5704	1443.777115641715	0
0	5712	1447.141171118195	1
0	5717	1448.862394142771	0
0	5723	1449.349702024528	1
0	5724	1449.368762386403	0
0	5738	1451.145284533925	1
0	5742	1453.294299940383	2
0	5749	1457.198147037434	1
0	5754	1457.411983090692	0
0	5760	1457.952201459814	1
0	5763	1458.625823333888	0
0	5773	1461.744964551722	1
0	5776	1463.593779504586	0
0	5790	1464.895826384773	1
0	5791	1465.600796388525	0
0	5803	1468.137132340611	1
0	5811	1473.227909080421	2
0	5812	1473.415904443383	1
0	5818	1474.441970056596	0
0	5833	1476.79306220928	1
0	5837	1477.211683585481	2
0	5839	1480.406067030288	3
0	5844	1480.907701967318	4
0	5846	1481.043672209684	5
0	5847	1481.060090431102	4
0	5853	1484.723626305062	3
0	5858	1484.903788562275	2
0	5864	1485.45057800809	3
0	5868	1487.020470342868	2
0	5874	1487.387749457126	1
0	5881	1488.692800012611	0
0	5911	1494.071620277645	1
0	5912	1494.595885501451	0
0	5937	1500.319289084841	1
0	5943	1504.392948281606	0
0	5957	1505.552536489892	1
0	5959	1506.506551511595	2
0	5964	1507.212329709027	3
0	5966	1507.624021898116	4
0	5968	1508.57287616768	5
0	5971	1509.917400120397	4
0	5977	1511.407522908864	3
0	5982	1511.831511676078	2
0	5989	1513.08218722546	1
0	5994	1513.204684826031	0
0	6012	1518.096645099625	1
0	6015	1518.446289959149	2
0	6016	1518.781186599455	1
0	6023	1519.006436278336	2
0	6025	1520.642529984849	3
0	6026	1521.351297356251	2
0	6036	1522.409159056782	3
0	6037	1522.838386961025	2
0	6042	1523.266435895791	1
0	6049	1524.03808164625	2
0	6051	1526.080394275417	1
0	6056	1526.485717746442	0
0	6063	1529.257740019206	1
0	6066	1530.087051646858	0
0	6079	1533.338339565444	1
0	6082	1533.935043380004	0
0	6101	1541.286928547845	1
0	6102	1541.376247375944	0
0	6119	1544.671267806694	1
0	6124	1545.389279848971	0
0	6132	1546.187577687974	1
0	6133	1546.244124638727	0
0	6139	1546.361660155138	1
0	6140	1546.593257980309	0
0	6158	1548.621145309858	1
0	6162	1549.865605401859	2
0	6163	1550.12329511741	1
0	6169	1550.634524640395	2
0	6176	1552.875622445833	3
0	6178	1553.753448227596	4
0	6179	1554.61759070404	3
0	6187	1555.319738704925	2
0	6193	1555.645022119148	1
0	6198	1556.128362901374	0
0	6207	1556.706443906205	1
0	6212	1557.839910291237	2
0	6213	1558.165303277317	1
0	6217	1561.651731029082	2
0	6219	1567.492770150923	3
0	6223	1567.803069991605	2
0	6229	1569.58868718594	1
0	6236	1571.931739093486	0
0	6256	1577.959571835176	1
0	6259	1580.042463005521	0
0	6273	1582.842295373329	1
0	6277	1583.194980525175	2
0	6278	1583.838824657269	1
0	6286	1585.399790949285	2
0	6287	1586.099998729731	1
0	6294	1588.720321521936	0
0	6329	1598.60725723132	1
0	6331	1599.208018219225	2
0	6334	1600.181265914717	1
0	6339	1600.905747217061	0
0	6350	1602.204507512127	1
0	6352	1602.280081878499	2
0	6358	1603.53173950881	1
0	6364	1604.936365651615	0
0	6370	1605.116464190363	1
0	6376	1606.874749226774	2
0	6377	1608.463324960377	1
0	6382	1608.820926403952	0
0	6386	1609.468464647157	1
0	6389	1610.376240201136	0
0	6396	1610.8934339702	1
0	6400	1613.158436453241	0
0	6412	1613.805272336835	1
0	6413	1614.144829798351	0
0	6424	1614.471426943344	1
0	6426	1615.03824233617	2
0	6428	1615.58677280796	1
0	6434	1617.003116368441	0
0	6469	1625.858530734462	1
0	6470	1625.993401021449	0
0	6476	1626.487504310425	1
0	6478	1626.57876365541	2
0	6482	1627.133865769497	1
0	6487	1627.224269521672	0
0	6493	1627.874234314977	1
0	6495	1628.406529275089	0
0	6503	1628.914399166002	1
0	6506	1630.505409923804	0
0	6514	1632.19594869406	1
0	6515	1632.614076421514	0
0	6529	1633.496635547177	1
0	6533	1635.293372027804	0
0	6539	1635.910527530323	1
0	6540	1635.91350611711	0
0	6568	1643.485972948119	1
0	6571	1644.582202176966	0
0	6580	1645.201058039031	1
0	6582	1645.215709905205	2
0	6587	1645.911657641253	3
0	6591	1648.28703720084	4
0	6592	1648.332674538709	3
0	6597	1648.590761258445	2
0	6602	1649.093308950235	1
0	6608	1650.637329937763	2
0	6609	1651.547998676216	1
0	6613	1651.822970466156	2
0	6617	1652.657002841488	3
0	6620	1653.357406653291	2
0	6629	1653.771169049017	3
0	6632	1654.773434938103	2
0	6639	1655.821427160257	3
0	6642	1657.107743116066	2
0	6650	1658.647640692185	1
0	6655	1658.707829710896	0
0	6675	1662.806261092946	1
0	6676	1663.645517096966	0
0	6684	1664.018008338849	1
0	6685	1664.318657331309	0
0	6700	1668.232877309865	1
0	6703	1668.83602851224	0
0	6712	1670.426348496434	1
0	6716	1672.254879593088	2
0	6720	1675.36852427409	1
0	6725	1675.371242971852	0
0	6735	1678.126147179027	1
0	6737	1679.815223582305	0
0	6751	1683.903903531647	1
0	6753	1685.476594676755	2
0	6758	1686.987897750335	3
0	6759	1687.201455732907	2
0	6765	1689.310524046624	3
0	6767	1689.529119462369	4
0	6769	1689.626640030543	5
0	6770	1690.521122977589	4
0	6776	1692.081747402213	5
0	6778	1692.187491319554	6
0	6781	1694.439926348313	5
0	6786	1695.032549319849	4
0	6793	1698.705638647368	3
0	6802	1702.593198049648	2
0	6806	1702.819002405827	3
0	6812	1704.9009012875	2
0	6816	1705.315996781608	3
0	6820	1706.757905405436	4
0	6822	1707.619962694223	5
0	6826	1708.584937212404	6
0	6827	1708.754962953555	5
0	6831	1708.928031626248	6
0	6835	1709.564909725464	7
0	6838	1713.219345476707	6
0	6844	1714.294017793296	5
0	6849	1714.350828530256	4
0	6855	1715.338584635579	5
0	6856	1715.853253041019	4
0	6860	1715.918835204662	5
0	6865	1716.865027747759	4
0	6869	1717.174299920365	5
0	6872	1719.268364197934	4
0	6876	1719.361960224351	5
0	6878	1719.408586139979	6
0	6883	1723.963939305457	5
0	6888	1724.386392945172	4
0	6895	1728.352461074996	3
0	6899	1728.815738183954	4
0	6902	1729.114342962656	3
0	6907	1730.70514874582	2
0	6914	1733.480517353426	1
0	6920	1740.573430365197	0
0	6961	1745.875761284913	1
0	6965	1747.656096578657	2
0	6968	1748.701598390739	1
0	6973	1749.171091858547	0
0	6982	1750.102636405582	1
0	6984	1750.253302608334	2
0	6988	1752.833241539018	3
0	6991	1753.811925391999	4
0	6993	1754.901172246797	3
0	6998	1754.937980881117	2
0	7005	1755.916935349339	1
0	7011	1756.339820893393	2
0	7013	1756.647855299689	3
0	7015	1757.35956993924	2
0	7019	1757.621067849929	3
0	7023	1758.293682699429	4
0	7024	1758.484962905042	3
0	7029	1763.137811335743	2
0	7036	1763.942154240583	1
0	7042	1764.604904137896	0
0	7054	1765.631872690802	1
0	7057	1766.554550821211	0
0	7075	1768.914254986606	1
0	7078	1769.509863458924	0
0	7097	1773.865670263589	1
0	7099	1774.291363796384	2
0	7103	1776.488884471093	3
0	7110	1777.641180874268	4
0	7113	1780.48795640167	3
0	7119	1780.815806494037	4
0	7121	1782.047485595481	5
0	7125	1783.316349019528	4
0	7131	1783.554398322024	3
0	7137	1785.073241270174	4
0	7139	1785.561145587242	5
0	7140	1786.592836211678	4
0	7152	1787.403975960517	5
0	7154	1787.502148091995	6
0	7155	1787.879346547173	5
0	7161	1789.074329064744	4
0	7166	1789.200586215004	3
0	7171	1789.74004924358	2
0	7176	1790.771467320489	1
0	7182	1791.561353161193	2
0	7184	1791.739308541577	3
0	7189	1793.409595905626	2
0	7194	1793.54417062872	1
0	7200	1794.850994462953	2
0	7203	1795.840609937596	3
0	7204	1795.947013736033	2
0	7209	1795.994935244442	1
0	7214	1796.324293972445	0
0	7253	1805.84454728467	1
0	7258	1807.130503928158	0
0	7264	1807.270019717042	1
0	7265	1807.53753576097	0
0	7286	1813.20948166924	1
0	7294	1814.874880536008	2
0	7295	1816.668247980984	1
0	7300	1817.782920542246	0
0	7322	1820.84803949187	1
0	7325	1821.259524638806	0
0	7334	1822.68793252569	1
0	7339	1824.470580222675	0
0	7350	1825.924094333419	1
0	7354	1827.355776775549	0
0	7366	1828.07605914196	1
0	7367	1828.224049506739	0
0	7394	1836.838191120316	1
0	7395	1837.553244635691	0
0	7404	1838.862581550539	1
0	7407	1839.900977885683	0
0	7413	1839.936780130566	1
0	7415	1840.347064209543	2
0	7417	1840.377196449629	3
0	7419	1840.654729188223	2
0	7423	1841.730498665102	3
0	7426	1843.265954788143	2
0	7435	1844.394427110863	1
0	7441	1845.698118223618	0
0	7449	1847.372321911007	1
0	7450	1847.95547008397	0
0	7516	1866.303641283766	1
0	7519	1868.05496283218	0
0	7528	1868.690607516568	1
0	7530	1868.85956984987	2
0	7532	1871.437560050418	3
0	7535	1872.186326437355	2
0	7540	1872.292190255866	1
0	7545	1872.500625394508	0
0	7556	1873.079463621812	1
0	7560	1876.565926496031	2
0	7567	1879.207281011829	3
0	7568	1879.332362347379	2
0	7572	1879.623346812996	3
0	7578	1882.190840508195	4
0	7580	1882.526130820516	5
0	7583	1883.612911668551	6
0	7587	1884.5912868148	7
0	7588	1885.542746985158	6
0	7593	1885.653842157186	5
0	7599	1885.925362755425	4
0	7605	1886.783670728642	5
0	7609	1887.481005357348	6
0	7610	1890.846207783047	5
0	7614	1891.607428475548	6
0	7616	1892.503409455415	7
0	7619	1893.738521299336	6
0	7625	1894.483259659461	5
0	7630	1895.91870883561	4
0	7636	1897.13186486541	3
0	7641	1897.437781228697	2
0	7647	1898.069831157871	1
0	7655	1898.825448339939	2
0	7659	1900.094851708413	3
0	7660	1900.899426696938	2
0	7672	1904.582204220646	3
0	7673	1904.634043551855	2
0	7678	1904.636205687433	1
0	7684	1905.029387600086	0
0	7709	1909.351785095107	1
0	7710	1910.415811212776	0
0	7716	1910.868620201359	1
0	7718	1911.86573814261	0
0	7727	1912.46951777955	1
0	7734	1915.174790797466	2
0	7735	1915.770359747671	1
0	7741	1916.926993675161	0
0	7758	1918.077481294673	1
0	7762	1919.822217081505	2
0	7765	1921.554052309962	1
0	7771	1923.138890755006	0
0	7777	1923.703719429406	1
0	7778	1924.144185643451	0
0	7784	1924.227934196176	1
0	7785	1924.243757256466	0
0	7812	1932.963998896689	1
0	7814	1934.984559045033	2
0	7818	1938.417400585264	3
0	7819	1943.398927793667	2
0	7825	1944.593440588521	1
0	7830	1944.831075102911	0
0	7870	1954.014586290396	1
0	7872	1954.230135179885	2
0	7873	1954.350272167228	1
0	7878	1954.843933915998	0
0	7933	1962.830797953541	1
0	7935	1963.43226230819	2
0	7936	1963.709665694607	1
0	7941	1964.122972293472	0
0	7954	1966.17555873872	1
0	7956	1968.132153630148	2
0	7957	1968.259116052417	1
0	7963	1969.726802857714	0
0	7970	1970.568450799599	1
0	7974	1973.802344086896	0
0	7983	1975.667802992636	1
0	7985	1978.863382977587	2
0	7987	1979.454762821465	3
0	7995	1981.36403427799	2
0	8000	1981.515639374127	1
0	8006	1981.6313011214	2
0	8008	1981.971852349345	1
0	8014	1982.839118037696	0
0	8032	1985.756244605201	1
0	8034	1986.01086449314	2
0	8038	1986.54238371699	1
0	8045	1988.110212617174	2
0	8046	1989.45620730384	1
0	8053	1989.653098363895	2
0	8055	1990.778769961809	1
0	8061	1990.946649708605	2
0	8063	1991.559424313318	3
0	8064	1992.282938408431	2
0	8070	1992.464843236269	3
0	8072	1993.264975778454	4
0	8076	1994.554991179392	3
0	8084	1995.311708836129	2
0	8090	1995.554147027842	3
0	8091	1995.641071520462	2
0	8096	1998.579847714351	1
0	8102	2000.167805689983	2
0	8104	2001.671070502576	3
0	8106	2001.793592074357	4
0	8107	2001.901199544718	3
0	8113	2002.748317778527	4
0	8114	2002.780231679825	3
0	8119	2005.264129640844	2
0	8124	2006.2229183528	1
0	8130	2008.80027299161	2
0	8132	2009.072275844193	3
0	8134	2009.248878655603	4
0	8139	2009.892173616594	5
0	8140	2009.935148263315	4
0	8145	2011.0238990936	3
0	8153	2012.646903878252	4
0	8154	2012.822745790989	3
0	8159	2015.32664875909	2
0	8163	2015.648486649104	3
0	8166	2018.016088921555	2
0	8171	2020.507286202574	1
0	8175	2020.592978459906	2
0	8177	2020.978636607425	3
0	8180	2021.539224831381	2
0	8189	2024.208078912647	1
0	8196	2024.746105934522	2
0	8197	2024.747674340952	1
0	8206	2025.011499459547	0
0	8213	2025.805644540483	1
0	8214	2026.515900149362	0
0	8249	2034.389667578703	1
0	8251	2034.669170067198	2
0	8252	2035.233585548341	1
0	8257	2036.69856483955	0
0	8274	2038.926769630888	1
0	8276	2040.282080864061	0
0	8289	2040.84595049476	1
0	8292	2041.126367212707	0
0	8299	2041.209446160273	1
0	8300	2042.021009431269	0
0	8316	2045.968398506344	1
0	8322	2048.961945310175	2
0	8326	2049.77268432798	3
0	8328	2049.828284296539	4
0	8329	2050.913526186013	3
0	8335	2051.127402908423	4
0	8338	2052.110184915802	3
0	8344	2053.677381818456	2
0	8350	2053.996265019598	1
0	8356	2054.740995875507	0
0	8374	2057.671723981358	1
0	8375	2057.731484475821	0
0	8397	2062.407820864347	1
0	8399	2062.429921753846	2
0	8403	2065.141082122656	3
0	8404	2066.037944730337	2
0	8410	2066.462694600387	3
0	8412	2068.015807704465	2
0	8420	2069.019602710495	1
0	8425	2069.51360932892	0
0	8436	2073.298854103521	1
0	8438	2073.525750413156	0
0	8457	2078.10961060532	1
0	8459	2078.322107977636	0
0	8471	2079.518585800498	1
0	8472	2079.736332668392	0
0	8480	2080.908384826066	1
0	8481	2080.913889379466	0
0	8490	2081.588706112819	1
0	8496	2085.479615662314	2
0	8497	2086.674710744972	1
0	8503	2086.813377317867	2
0	8505	2087.980952119329	1
0	8512	2088.90359691781	2
0	8513	2089.430509035397	1
0	8518	2090.097586008804	0
0	8546	2096.654867975669	1
0	8548	2097.7856122168	2
0	8552	2099.525115181377	3
0	8554	2101.818399260958	4
0	8555	2101.834406849282	3
0	8560	2101.930793990652	2
0	8569	2103.825802534039	1
0	8574	2104.239120651985	0
0	8590	2110.984805485319	1
0	8596	2112.600543491381	0
0	8622	2120.098379383471	1
0	8626	2121.100367749836	2
0	8628	2121.720044405504	3
0	8629	2122.999635739014	2
0	8636	2123.96166592862	1
0	8641	2124.020539356493	0
0	8672	2132.505048564717	1
0	8674	2133.686578616679	2
0	8676	2134.057085002096	3
0	8678	2134.326364542638	4
0	8679	2134.448797456357	3
0	8683	2134.802485510672	4
0	8686	2135.548005317974	3
0	8691	2137.491480792192	2
0	8695	2138.159107676396	3
0	8699	2139.722347269453	2
0	8704	2139.840564298611	1
0	8711	2142.084624205542	0
0	8764	2156.750945478153	1
0	8765	2156.929028503292	0
0	8807	2171.333127401763	1
0	8809	2171.689986450992	2
0	8811	2171.850308222435	3
0	8817	2172.953033153471	4
0	8818	2174.384290658845	3
0	8824	2174.971936349945	4
0	8825	2174.988428828172	3
0	8830	2175.452896973835	2
0	8841	2181.124212361109	1
0	8848	2184.814143124745	0
0	8864	2186.879075827429	1
0	8866	2187.516276019034	2
0	8873	2191.997575230413	3
0	8875	2192.950321245173	4
0	8877	2193.5570914648	5
0	8878	2193.639841878809	4
0	8886	2195.289902683593	3
0	8894	2197.39873204158	2
0	8899	2198.669167576674	1
0	8904	2200.154261225752	0
0	8908	2202.672452637144	1
0	8910	2203.183296363453	2
0	8916	2203.489545733262	3
0	8918	2203.845266582234	4
0	8921	2204.055041454606	3
0	8926	2204.380154396155	2
0	8932	2207.260461786168	1
0	8938	2207.52749705122	2
0	8939	2207.677682807598	1
0	8943	2209.068728922334	2
0	8948	2211.311931815458	1
0	8958	2215.855983959721	2
0	8961	2218.287489108477	1
0	8969	2221.80808119944	2
0	8972	2222.803766760447	3
0	8975	2224.500561044709	2
0	8981	2227.288191457906	1
0	8990	2230.302146515999	0
0	9020	2237.792538239072	1
0	9022	2239.855186655431	0
0	9028	2239.861000862426	1
0	9030	2240.872811586872	0
0	9042	2241.636497093804	1
0	9044	2242.729163314512	0
0	9055	2243.721848515894	1
0	9060	2244.637138743254	2
0	9063	2245.225999979758	3
0	9064	2246.495259207085	2
0	9069	2246.822342346058	1
0	9074	2247.442386338044	0
0	9094	2251.299206703648	1
0	9095	2251.528766951769	0
0	9104	2253.171621237687	1
0	9107	2253.648061561324	0
0	9140	2256.597884321107	1
0	9142	2256.771818014595	2
0	9149	2260.060181203146	1
0	9155	2260.343469733259	0
0	9167	2262.056095447467	1
0	9169	2262.874728576987	2
0	9175	2264.33474218144	3
0	9177	2264.944625037127	4
0	9178	2265.928699427987	3
0	9185	2267.285683874897	2
0	9192	2267.634649338167	3
0	9196	2269.022507481578	2
0	9206	2271.391246114558	1
0	9214	2271.800089637486	2
0	9219	2275.980528834347	1
0	9225	2276.722811549002	0
0	9245	2281.873468558363	1
0	9247	2282.145923039721	2
0	9250	2282.218505362824	3
0	9251	2282.227795774034	2
0	9258	2282.95974822817	3
0	9260	2282.967966880124	4
0	9265	2283.699421349972	3
0	9271	2284.14936994456	2
0	9276	2285.806349355714	1
0	9280	2286.309104819942	2
0	9282	2287.308606148709	3
0	9284	2291.083174837205	4
0	9288	2293.276904791643	5
0	9292	2294.432349011441	6
0	9293	2294.574480513588	5
0	9297	2294.785920340498	6
0	9302	2298.730673740255	5
0	9307	2298.731906555719	4
0	9314	2299.268712621442	3
0	9320	2299.56029871849	2
0	9326	2300.801464103714	3
0	9329	2301.656455765268	2
0	9336	2304.172060002219	3
0	9340	2306.644094059822	2
0	9346	2307.359974349445	1
0	9352	2307.730757932184	2
0	9354	2308.229838251282	1
0	9359	2308.561481378093	0
0	9372	2312.146839308949	1
0	9373	2315.956582746614	0
0	9395	2317.763960019528	1
0	9402	2321.185175097445	0
0	9428	2326.650710063534	1
0	9431	2328.373693767084	0
0	9443	2329.465110653042	1
0	9445	2329.98638585357	2
0	9447	2330.208476844265	3
0	9452	2332.385658124558	2
0	9457	2334.083000572753	1
0	9463	2334.532060715876	0
0	9481	2338.918226778901	1
0	9482	2338.922119874872	0
0	9491	2342.152096351393	1
0	9494	2343.104501128206	0
0	9498	2345.542136753758	1
0	9503	2346.700687634603	2
0	9508	2347.271425620508	3
0	9510	2347.863265082443	2
0	9515	2347.925669511485	1
0	9519	2348.689355991871	2
0	9524	2349.144819164226	3
0	9528	2350.701251345884	4
0	9531	2351.610117285659	3
0	9541	2355.665538591119	4
0	9542	2357.557089948413	3
0	9549	2358.371630883525	2
0	9556	2358.661245751154	3
0	9558	2358.729337964537	4
0	9560	2359.631183055529	3
0	9566	2359.72468339965	4
0	9569	2362.294925921981	5
0	9574	2362.915442143537	4
0	9579	2363.083047554696	3
0	9585	2363.112913060918	4
0	9586	2363.322974039101	3
0	9592	2364.932942068839	4
0	9593	2365.106645603603	3
0	9598	2365.968944826008	2
0	9604	2366.998920065935	3
0	9607	2369.474359174316	2
0	9614	2370.118646387049	1
0	9623	2372.917917605161	0
0	9629	2373.892635617066	1
0	9630	2374.99863514484	0
0	9649	2376.837451747666	1
0	9651	2380.37968802941	0
0	9666	2382.809530726169	1
0	9668	2387.886468043511	2
0	9669	2390.003207408274	1
0	9675	2390.781022811282	0
0	9709	2394.463138926795	1
0	9711	2394.552689187891	2
0	9713	2394.847560042033	3
0	9714	2398.345638766447	2
0	9720	2398.857379747032	3
0	9724	2400.677338234722	2
0	9729	2401.371185055612	1
0	9735	2402.590299250574	0
0	9745	2404.118645982469	1
0	9749	2407.156197144543	0
0	9755	2407.309532913533	1
0	9761	2408.321191191728	2
0	9762	2408.824266557107	1
0	9769	2409.825660175888	0
0	9777	2410.294992606772	1
0	9780	2411.421863230038	0
0	9828	2421.841266939208	1
0	9832	2423.500100271459	2
0	9833	2423.533594082116	1
0	9839	2423.775151290546	0
0	9845	2425.230211560281	1
0	9846	2427.049340144909	0
0	9855	2427.305318316718	1
0	9861	2430.104240136656	0
0	9872	2431.286451516278	1
0	9875	2431.831334288184	2
0	9877	2433.288984827113	1
0	9882	2433.402862154908	0
0	9888	2433.601885339282	1
0	9891	2434.25910236321	0
0	9912	2436.090203947505	1
0	9917	2439.255076248988	2
0	9919	2439.258200600177	3
0	9921	2439.780105424368	2
0	9928	2441.798872238386	3
0	9929	2441.826552890453	2
0	9937	2444.719175311634	3
0	9947	2449.549679757717	4
0	9949	2450.355270739034	5
0	9950	2450.737210097054	4
0	9956	2452.264214702005	5
0	9958	2453.054208581496	4
0	9964	2454.286173563224	3
0	9970	2455.480266597708	4
0	9974	2455.868295974911	3
0	9983	2456.485985760748	4
0	9987	2456.923134474845	5
0	9989	2457.443910522424	6
0	9990	2457.655195118087	5
0	9995	2459.506208110542	4
0	10000	2460.276252922601	3
0	10006	2462.485008385406	4
0	10009	2463.873732510389	3
0	10013	2464.24376889542	4
0	10016	2464.904085046687	3
0	10023	2465.665434793248	2
0	10031	2468.661354742646	1
0	10036	2468.703112818874	0
0	10048	2469.723012876959	1
0	10051	2472.376429706445	0
0	10065	2474.412361225864	1
0	10066	2475.899061701359	0
0	10083	2479.487081598735	1
0	10086	2481.209122649321	0
0	10096	2484.978231557276	1
0	10098	2485.124305438394	2
0	10104	2490.178497345686	3
0	10109	2491.304202661402	2
0	10114	2491.51130192593	1
0	10120	2491.535454087985	2
0	10122	2491.83073019366	3
0	10124	2492.263577942397	2
0	10129	2493.3653494555	1
0	10135	2495.373554860121	2
0	10137	2495.54634981889	3
0	10138	2495.858130472471	2
0	10142	2496.487292775065	3
0	10144	2497.057350272211	4
0	10146	2500.327201470028	5
0	10150	2501.757066411356	6
0	10157	2503.486261454786	7
0	10159	2504.5798677483	6
0	10166	2505.091469531931	5
0	10171	2506.078225540558	4
0	10176	2506.628348730801	3
0	10180	2507.600626879195	4
0	10183	2508.549056333342	3
0	10194	2511.586255007642	2
0	10201	2511.607397224571	3
0	10202	2511.83402359382	2
0	10207	2511.945396081063	1
0	10212	2512.122529199376	0
0	10228	2516.714643316138	1
0	10230	2517.322265970149	2
0	10234	2518.235134471221	3
0	10236	2518.381488045918	4
0	10237	2519.421841434081	3
0	10245	2520.827730247303	4
0	10248	2521.530793669978	3
0	10254	2521.831758706419	4
0	10256	2522.382882454761	5
0	10257	2522.408076498958	4
0	10263	2523.166028758875	3
0	10269	2523.267995983284	2
0	10275	2523.418286793365	3
0	10281	2525.53009225785	4
0	10282	2527.827724087303	3
0	10289	2529.743848023056	2
0	10295	2530.040915565817	1
0	10300	2530.217985758841	0
0	10312	2532.153480239438	1
0	10315	2534.123743862891	2
0	10317	2535.113468763256	1
0	10324	2536.457753365439	2
0	10325	2537.017087901444	1
0	10330	2537.772458053208	0
0	10349	2539.734587751233	1
0	10356	2542.614833456856	2
0	10357	2542.712138433806	1
0	10362	2543.014688306517	0
0	10380	2545.32998657848	1
0	10381	2545.369540081043	0
0	10387	2545.805538631416	1
0	10389	2546.46056935578	2
0	10390	2547.740056431297	1
0	10396	2549.525824570145	2
0	10398	2549.712890036086	1
0	10404	2549.870141369976	2
0	10410	2551.745103828359	3
0	10411	2552.266052857224	2
0	10416	2552.83692087111	1
0	10421	2553.182565243315	0
0	10436	2556.683271072279	1
0	10439	2557.89012206869	0
0	10454	2559.813754584637	1
0	10459	2563.436925373467	0
0	10505	2574.646677235229	1
0	10509	2577.10774202957	2
0	10510	2577.959222427319	1
0	10516	2579.746491474114	0
0	10533	2583.451104458028	1
0	10536	2585.235656290901	0
0	10552	2586.903703846786	1
0	10554	2587.803881659006	0
0	10563	2589.582861313727	1
0	10568	2590.087703347474	0
0	10581	2591.303283182988	1
0	10588	2595.06266917917	0
0	10600	2596.963828654563	1
0	10601	2597.291411565768	0
0	10621	2602.254668294984	1
0	10626	2604.764094020156	0
0	10635	2607.242825464895	1
0	10638	2607.393294848692	0
0	10679	2619.166144053873	1
0	10680	2619.474092775806	0
0	10692	2620.20509341824	1
0	10694	2620.632796559493	2
0	10696	2621.111854086651	1
0	10701	2621.689658819678	0
0	10732	2625.635442272324	1
0	10733	2625.858905689915	0
0	10742	2626.640744682894	1
0	10744	2626.951886123285	2
0	10746	2627.298337385681	3
0	10749	2628.234273144189	2
0	10754	2628.912429634825	1
0	10760	2630.228601158059	0
0	10764	2631.037609081194	1
0	10768	2633.642456525676	0
0	10772	2633.883999858146	1
0	10774	2633.955109388951	2
0	10777	2635.865741693045	1
0	10783	2637.146912933229	0
0	10817	2651.496323555287	1
0	10823	2654.980375067112	2
0	10824	2654.99156924074	1
0	10830	2655.199857070315	2
0	10832	2656.597881629846	1
0	10837	2656.799953521569	0
0	10860	2661.339901914951	1
0	10862	2661.68379313667	2
0	10866	2662.184296429931	3
0	10867	2663.478905459652	2
0	10873	2663.484365378946	3
0	10875	2663.601571271863	2
0	10881	2664.280361553816	1
0	10887	2665.045080683574	0
0	10899	2666.108616634665	1
0	10901	2667.276175532353	0
0	10918	2670.296537583287	1
0	10919	2670.634730070528	0
0	10932	2672.141917172947	1
0	10934	2672.948353067441	0
0	10970	2682.039863084254	1
0	10976	2682.644322936137	2
0	10977	2683.355788852204	1
0	10983	2684.082616367991	2
0	10985	2685.519202832198	1
0	10991	2686.195257466612	0
0	11001	2687.036169127272	1
0	11004	2687.977366194589	0
0	11017	2689.352659998362	1
0	11018	2689.358929796277	0
0	11031	2692.251389484753	1
0	11032	2693.569497011664	0
0	11043	2693.616232452744	1
0	11046	2694.251408440751	0
0	11069	2696.600378170743	1
0	11070	2696.709850456685	0
0	11081	2699.856052010935	1
0	11087	2702.130161429487	0
0	11102	2704.054208809	1
0	11103	2704.295985224998	0
0	11112	2705.268129373444	1
0	11114	2707.053874581922	2
0	11115	2708.072876050403	1
0	11121	2708.438742077985	2
0	11125	2709.362844182666	3
0	11126	2709.516388752128	2
0	11132	2710.902548304243	1
0	11139	2711.079626908919	0
0	11151	2711.615599797356	1
0	11152	2711.997109876617	0
0	11168	2717.585456054839	1
0	11172	2717.789020647269	2
0	11173	2717.956735442226	1
0	11180	2719.64631132293	0
0	11230	2730.337434499955	1
0	11234	2730.560549734819	2
0	11235	2731.655558966623	1
0	11241	2732.672463433757	0
0	11261	2736.800726046574	1
0	11268	2739.5804252213	2
0	11274	2741.239274341053	3
0	11275	2741.478573819136	2
0	11280	2741.548290521479	1
0	11286	2743.169310641671	2
0	11292	2745.936186630027	1
0	11298	2746.373759457746	0
0	11311	2747.292256316213	1
0	11313	2747.761038799542	2
0	11317	2748.469046546473	1
0	11325	2749.290987782823	0
0	11336	2751.899094235479	1
0	11339	2752.978771994164	2
0	11342	2753.633012362885	1
0	11348	2755.053134499921	0
0	11387	2764.586452167345	1
0	11391	2766.19637766418	2
0	11394	2767.914083377341	1
0	11405	2769.10496208415	0
0	11433	2773.861880139234	1
0	11437	2774.593128986424	2
0	11441	2774.738822785482	3
0	11447	2776.627989920839	4
0	11457	2780.514544502336	3
0	11462	2780.562340320088	2
0	11468	2780.724428798755	3
0	11470	2781.499244408899	4
0	11474	2782.709760427891	3
0	11479	2782.870621426292	2
0	11484	2783.557958793073	1
0	11490	2787.22154557753	2
0	11492	2787.630922603079	1
0	11497	2787.736681374283	0
0	11515	2790.42440273536	1
0	11517	2791.233856466849	2
0	11518	2792.624317286657	1
0	11525	2794.836053509143	0
0	11531	2796.017982583028	1
0	11533	2797.440779595358	0
0	11553	2800.240481654933	1
0	11554	2800.326444624491	0
0	11576	2802.927208743816	1
0	11579	2803.86562443746	0
0	11595	2808.391221924024	1
0	11597	2809.012518628819	2
0	11599	2811.459241802533	3
0	11604	2812.1988910072	2
0	11611	2812.857693750178	1
0	11616	2812.975400308662	0
0	11637	2815.621053694764	1
0	11639	2815.627792245967	2
0	11640	2815.933643897673	1
0	11647	2817.826616053865	2
0	11648	2818.166974295581	1
0	11654	2818.285473732865	2
0	11655	2818.384938570009	1
0	11661	2819.8362341355	0
0	11675	2822.389107841321	1
0	11676	2823.42185288742	0
0	11696	2826.139624821363	1
0	11698	2826.435622489675	2
0	11701	2828.659263117322	1
0	11706	2830.246274769189	0
0	11724	2833.476652415036	1
0	11725	2833.565241170945	0
0	11746	2836.040541869822	1
0	11752	2836.741995572229	2
0	11753	2837.170165280689	1
0	11761	2837.906873679558	2
0	11762	2838.227841468316	1
0	11767	2839.449683735101	0
0	11781	2843.018578963337	1
0	11783	2843.058495429139	2
0	11784	2843.344966781029	1
0	11790	2843.35587717245	2
0	11792	2843.566407009465	3
0	11794	2844.079472049495	4
0	11796	2846.099445214038	3
0	11801	2847.458734280391	2
0	11807	2847.504366433799	3
0	11809	2847.733196397647	4
0	11813	2848.6932122339	5
0	11818	2850.026669191103	6
0	11820	2851.170394880542	7
0	11821	2853.357359126777	6
0	11828	2853.678617974339	7
0	11833	2855.112753473033	8
0	11834	2855.46958782812	7
0	11839	2856.905843158732	6
0	11846	2857.565603528848	5
0	11852	2859.769552932365	4
0	11858	2860.62081319636	3
0	11863	2860.708216327676	2
0	11867	2862.767630501194	3
0	11869	2862.952647113618	4
0	11874	2864.141276071904	3
0	11882	2864.798114961231	2
0	11887	2864.983531063738	1
0	11892	2866.389489105705	0
0	11904	2869.292778099302	1
0	11906	2869.407770383263	2
0	11909	2869.845927196763	1
0	11916	2871.372080389332	0
0	11934	2873.786632664839	1
0	11936	2873.922563485347	2
0	11938	2874.081156419835	3
0	11940	2874.194115675337	4
0	11942	2876.025026214652	3
0	11950	2878.467592969967	4
0	11951	2878.906199992394	3
0	11957	2879.058557599355	4
0	11958	2879.779530411661	3
0	11963	2881.150602077388	2
0	11970	2883.816393660615	3
0	11973	2884.1557421645	2
0	11978	2884.744849385501	1
0	11987	2889.722280924987	0
0	12005	2893.434418726264	1
0	12006	2893.444822161555	0
0	12017	2894.534377526073	1
0	12021	2897.589507285866	2
0	12024	2898.103021220835	3
0	12025	2898.621107479812	2
0	12030	2898.882937163198	1
0	12036	2899.163865880492	0
0	12046	2900.873528275495	1
0	12050	2902.788268971446	2
0	12052	2902.857821712415	1
0	12057	2903.284723973357	0
0	12069	2908.534901110365	1
0	12073	2909.57246713168	0
0	12093	2912.602019473242	1
0	12097	2913.16943153017	2
0	12098	2914.855493474871	1
0	12113	2917.997274033376	0
0	12129	2919.135600787628	1
0	12132	2920.072037098368	0
0	12144	2923.245693902191	1
0	12145	2924.680220111912	0
0	12151	2924.948551582566	1
0	12153	2925.370306577901	2
0	12155	2925.861944826225	3
0	12157	2926.199125800381	2
0	12163	2926.327299155135	3
0	12167	2927.427416112248	4
0	12169	2927.732305430846	5
0	12171	2929.237213104115	6
0	12172	2931.139449733988	5
0	12178	2931.729672263524	4
0	12183	2931.743423319117	3
0	12188	2933.258799242753	2
0	12197	2936.105689925459	1
0	12204	2936.667458378708	2
0	12205	2936.986514599042	1
0	12213	2937.759411291037	2
0	12216	2938.61388228238	1
0	12222	2938.907744273234	0
0	12243	2941.6566498741	1
0	12244	2943.938347440731	0
0	12255	2945.210048394201	1
0	12256	2945.214784961972	0
0	12263	2946.176967482522	1
0	12264	2946.230554724278	0
0	12305	2955.892507470323	1
0	12306	2957.211389272938	0
0	12312	2958.481326070798	1
0	12314	2960.138023483463	0
0	12330	2961.556184127515	1
0	12333	2962.894632128121	0
0	12342	2963.182343052412	1
0	12344	2964.023444321998	2
0	12347	2965.324411848656	1
0	12353	2965.325567381387	2
0	12355	2965.366207101419	3
0	12362	2967.18937434097	4
0	12364	2967.304415459799	5
0	12365	2967.750829059178	4
0	12371	2968.185768922068	3
0	12378	2969.540710387414	4
0	12379	2969.836134849571	3
0	12384	2970.85831578509	2
0	12388	2971.309706050879	3
0	12396	2973.560997623433	2
0	12402	2974.015444245623	3
0	12403	2974.032622637334	2
0	12407	2974.067747861945	3
0	12410	2975.664944144946	2
0	12416	2978.608611777364	3
0	12417	2978.767394339878	2
0	12421	2980.556548264895	3
0	12424	2983.919133192323	2
0	12429	2984.839728514399	1
0	12435	2986.386589312845	2
0	12438	2986.859507099962	1
0	12443	2988.240293761646	0
0	12478	2994.925025731858	1
0	12480	2995.126002275823	2
0	12485	2997.473176570955	1
0	12492	2997.660592938507	2
0	12494	2998.220078848387	3
0	12495	2998.89864582938	2
0	12500	2999.104412005096	1
0	12505	2999.514830655719	0
0	12524	3003.865088349525	1
0	12529	3007.241675087941	0
0	12541	3008.306773861137	1
0	12543	3008.449473091949	2
0	12544	3008.575951472279	1
0	12551	3008.854228819399	2
0	12555	3009.571080980602	3
0	12556	3009.74436040838	2
0	12561	3010.025641489556	1
0	12568	3011.103305910153	2
0	12569	3012.3347575544	1
0	12577	3019.12462924447	2
0	12581	3020.545472028207	3
0	12584	3022.307618612732	2
0	12589	3022.681178233709	1
0	12601	3023.610726381012	2
0	12604	3024.041000942185	1
0	12611	3025.380686985883	0
0	12631	3030.258417151874	1
0	12633	3031.414017731808	2
0	12636	3035.096443689095	1
0	12645	3035.462105519177	0
0	12655	3036.477799980537	1
0	12660	3037.513042189685	0
0	12699	3047.979278932933	1
0	12703	3051.320325329664	2
0	12704	3052.809922676842	1
0	12712	3053.522037545573	2
0	12718	3054.457321109499	1
0	12723	3055.195670015544	0
0	12730	3056.39012386814	1
0	12731	3056.813402740842	0
0	12740	3057.398895931953	1
0	12744	3058.285782190088	2
0	12749	3059.619557224447	1
0	12761	3062.715845963104	2
0	12763	3063.547251243017	3
0	12766	3064.225240100783	2
0	12772	3068.559711051413	1
0	12777	3069.051514711512	0
0	12790	3071.945085636642	1
0	12791	3072.151003453184	0
0	12795	3072.190398537966	1
0	12801	3073.54131936522	0
0	12807	3073.590201265697	1
0	12809	3073.82257443369	2
0	12815	3074.36332972668	3
0	12817	3075.470039518435	2
0	12825	3076.886400436327	3
0	12827	3076.950149878025	4
0	12828	3076.965572768863	3
0	12834	3078.096213521432	2
0	12840	3078.811991210426	1
0	12845	3078.867306841258	0
0	12862	3080.381558043968	1
0	12864	3081.473846474594	0
0	12878	3082.91559741956	1
0	12879	3083.100602895667	0
0	12885	3084.220951565911	1
0	12886	3086.732836762533	0
0	12907	3090.127260260062	1
0	12911	3090.212310075038	2
0	12913	3091.09625393455	3
0	12914	3091.198339188757	2
0	12921	3092.112994730461	1
0	12929	3092.926122772487	2
0	12931	3093.00822029761	3
0	12932	3093.228826764491	2
0	12937	3094.387389416908	1
0	12946	3097.271721827103	0
0	12952	3097.47176187448	1
0	12954	3097.624803607364	2
0	12955	3097.920760904221	1
0	12965	3098.921344994014	0
0	12981	3100.319711372625	1
0	12982	3101.629157509432	0
0	12986	3101.84203212972	1
0	12991	3109.006942562514	0
0	13006	3110.530926009974	1
0	13010	3112.076898337712	0
0	13019	3112.450052582722	1
0	13023	3115.055139841405	0
0	13031	3116.230387915173	1
0	13034	3117.664575911007	0
0	13056	3121.178298159049	1
0	13058	3121.398837390687	2
0	13059	3123.880536779338	1
0	13064	3124.004304559496	0
0	13070	3125.093249634903	1
0	13072	3125.803886098433	0
0	13079	3126.156399618261	1
0	13083	3127.461260808806	0
0	13102	3131.486884740438	1
0	13103	3131.889901042175	0
0	13110	3132.85085628277	1
0	13111	3133.400273564347	0
0	13136	3136.854711395635	1
0	13139	3141.867965715078	0
0	13149	3146.43952224071	1
0	13155	3151.343057667676	2
0	13157	3151.686800455953	3
0	13159	3152.8326612758	4
0	13161	3153.380949128014	5
0	13163	3155.48719027576	6
0	13164	3156.100019962383	5
0	13171	3158.891298639836	4
0	13177	3158.907317424249	5
0	13179	3158.963110620233	4
0	13184	3159.543414425407	3
0	13188	3159.855669571408	4
0	13190	3160.711268503688	5
0	13194	3161.235151392405	6
0	13199	3161.823611639124	5
0	13204	3162.298257750066	4
0	13210	3163.375471876491	5
0	13211	3164.010649995341	4
0	13215	3165.771595230307	5
0	13220	3168.118965968393	4
0	13225	3170.007610682585	3
0	13232	3174.279430972106	2
0	13238	3175.373956252204	3
0	13242	3176.413773933361	4
0	13246	3176.72802684836	5
0	13247	3177.471111172127	4
0	13258	3180.439988020839	3
0	13264	3180.64082935648	4
0	13265	3180.827739046404	3
0	13270	3181.818133393515	2
0	13278	3182.913075084113	1
0	13283	3183.762623833704	0
0	13287	3184.11508329504	1
0	13289	3185.343489141411	2
0	13291	3185.706395758701	3
0	13296	3186.883099300291	4
0	13300	3188.468619019798	3
0	13306	3189.257601814428	2
0	13311	3189.450929867373	1
0	13316	3189.476500781163	0
0	13322	3190.368458626893	1
0	13324	3192.887437724895	0
0	13352	3199.105770667143	1
0	13358	3200.829922974785	2
0	13359	3203.022398404261	1
0	13365	3203.06803221966	2
0	13367	3203.821258703184	1
0	13373	3203.84045937182	2
0	13376	3204.567154455556	3
0	13378	3208.377060042632	2
0	13384	3209.180501795709	1
0	13390	3210.026259100976	0
0	13401	3210.605958776043	1
0	13405	3213.246372182298	2
0	13407	3213.50056323445	3
0	13409	3214.956566034872	2
0	13417	3215.838290707767	1
0	13423	3216.087792700266	0
0	13429	3216.602500694743	1
0	13431	3218.727706513275	0
0	13450	3220.196681084142	1
0	13454	3222.828991154467	0
0	13461	3224.171798113968	1
0	13464	3224.918982359995	0
0	13473	3226.688833309225	1
0	13475	3227.077959382062	2
0	13478	3227.721107624848	1
0	13483	3228.053271100867	0
0	13494	3229.302732119043	1
0	13499	3231.302626840353	0
0	13515	3233.620733619287	1
0	13517	3235.714065461201	2
0	13519	3235.804899118021	3
0	13521	3236.051957941148	4
0	13522	3236.221490076353	3
0	13529	3236.761107636424	4
0	13530	3237.807966105295	3
0	13535	3238.039214202858	2
0	13540	3238.203551243679	1
0	13544	3239.146376907734	2
0	13546	3239.895279519721	3
0	13548	3241.843922583433	4
0	13551	3243.22088427709	3
0	13559	3245.058343378376	4
0	13560	3245.829490252648	3
0	13566	3248.09809243218	2
0	13571	3248.354594052505	1
0	13579	3251.089746491687	0
0	13600	3254.685390828024	1
0	13602	3255.709813114277	2
0	13605	3257.785203206691	1
0	13610	3258.165010951099	0
0	13632	3263.390250458685	1
0	13635	3266.159191838764	0
0	13644	3270.363294654152	1
0	13649	3274.880592553054	0
0	13662	3276.816427302643	1
0	13665	3277.674668497597	0
0	13706	3285.315358009316	1
0	13710	3287.375037860381	2
0	13713	3288.439257971564	1
0	13719	3290.114584846733	0
0	13737	3293.708330895176	1
0	13740	3294.549548041517	0
0	13746	3294.555619233147	1
0	13748	3294.575161676034	2
0	13750	3294.660340021409	3
0	13751	3294.789924864404	2
0	13758	3296.951538316382	1
0	13764	3297.338907710493	2
0	13765	3297.556824092069	1
0	13771	3298.437856362227	2
0	13772	3298.615409689909	1
0	13781	3305.736788630007	0
0	13787	3305.907669229715	1
0	13791	3306.514840715686	0
0	13801	3307.241547193735	1
0	13802	3307.844848950207	0
0	13821	3311.316180619676	1
0	13825	3315.257943593767	2
0	13831	3317.829078055778	1
0	13838	3320.167081681067	0
0	13861	3327.457728828388	1
0	13862	3327.968109266504	0
0	13868	3328.478082010086	1
0	13869	3329.603241914606	0
0	13873	3330.356813052455	1
0	13876	3332.74475835755	0
0	13889	3336.264920429555	1
0	13898	3339.436519219262	0
0	13910	3343.021714377028	1
0	13912	3343.450147685349	2
0	13914	3343.854852814578	3
0	13915	3344.132917838128	2
0	13922	3344.77745117841	1
0	13927	3345.049499498014	0
0	13938	3345.414183939504	1
0	13940	3345.6303606625	2
0	13944	3346.888050692432	1
0	13951	3348.253348661954	2
0	13954	3350.085457770635	3
0	13956	3351.022134997709	4
0	13957	3351.185395583134	3
0	13964	3351.791959107345	2
0	13970	3354.227824195982	1
0	13975	3354.67812145061	0
0	13996	3358.535450090703	1
0	13997	3358.654755608341	0
0	14018	3361.177912100629	1
0	14020	3362.348335365172	0
0	14028	3362.733246665535	1
0	14029	3362.884004663637	0
0	14042	3364.351578340376	1
0	14043	3366.621505303237	0
0	14059	3368.285354839679	1
0	14060	3368.505512502227	0
0	14071	3371.13297081897	1
0	14074	3371.976606114844	2
0	14076	3372.349876234877	3
0	14077	3373.004097659171	2
0	14082	3373.111964995385	1
0	14092	3375.847757041175	2
0	14093	3376.179151014539	1
0	14101	3376.751596453326	0
0	14107	3377.519809561488	1
0	14110	3379.073394868028	0
0	14114	3382.208748620766	1
0	14116	3382.305295256793	2
0	14118	3382.986694591773	3
0	14123	3384.866861078043	2
0	14132	3386.461618557612	3
0	14133	3390.760802667553	2
0	14139	3391.610325935333	1
0	14144	3391.779724820388	0
0	14150	3392.546630388833	1
0	14151	3394.696867510363	0
0	14165	3397.684122851271	1
0	14169	3398.280869039834	0
0	14176	3398.819790433835	1
0	14178	3399.470501225033	2
0	14179	3399.588423755515	1
0	14184	3399.88903301508	0
0	14202	3402.55290803544	1
0	14206	3404.621898497758	0
0	14232	3410.433560210263	1
0	14233	3411.322021810521	0
0	14250	3416.736981611151	1
0	14251	3416.989082201583	0
0	14257	3417.032981269218	1
0	14259	3417.829705446926	0
0	14275	3419.952378289405	1
0	14276	3420.297298741808	0
0	14282	3420.534606777721	1
0	14283	3421.960596970522	0
0	14306	3427.791673475379	1
0	14308	3427.866843970271	2
0	14310	3428.470053513326	1
0	14316	3428.637864116606	2
0	14318	3430.057320720037	1
0	14325	3432.987741559263	0
0	14339	3435.451491289026	1
0	14347	3439.411039312746	2
0	14348	3439.488318648474	1
0	14353	3439.581658794986	0
0	14383	3444.518929744189	1
0	14386	3445.192237209554	2
0	14387	3445.401127191846	1
0	14395	3446.314250070758	0
0	14420	3447.629510611768	1
0	14423	3449.627506631236	0
0	14452	3459.442478144812	1
0	14456	3462.03159948509	2
0	14461	3464.49332552007	1
0	14466	3464.823265055806	0
0	14491	3468.470275144985	1
0	14496	3469.118682121263	2
0	14497	3469.383585239021	1
0	14502	3469.914711973205	0
0	14531	3473.484010546141	1
0	14535	3474.049736460227	2
0	14537	3475.282896312617	3
0	14538	3479.026973828986	2
0	14543	3479.206894319	1
0	14551	3479.847481977062	0
0	14567	3482.201988334889	1
0	14570	3483.401974301089	0
0	14577	3485.787908949515	1
0	14578	3486.22865565745	0
0	14587	3486.596227358479	1
0	14594	3488.919922911178	0
0	14600	3489.183558191826	1
0	14602	3489.184737417168	2
0	14603	3489.317323139469	1
0	14608	3489.786334216942	0
0	14658	3505.428491725297	1
0	14660	3505.443306377629	2
0	14665	3508.079010451689	1
0	14670	3508.188056601226	0
0	14679	3511.429295169249	1
0	14683	3512.455484842806	2
0	14684	3512.531072452226	1
0	14694	3515.813261903477	0
0	14700	3516.356834039942	1
0	14702	3517.501216337019	0
0	14716	3518.327185134529	1
0	14717	3519.778145028909	0
0	14728	3520.747822440144	1
0	14735	3524.902240053645	2
0	14736	3525.394324433475	1
0	14743	3525.595638182067	0
0	14760	3527.090150609186	1
0	14761	3527.130132435105	0
0	14767	3527.377446502264	1
0	14769	3527.862712919948	2
0	14771	3528.72235178045	1
0	14778	3529.966109599955	2
0	14780	3530.090642259108	3
0	14781	3530.39391093535	2
0	14787	3530.803692304295	1
0	14795	3532.8256622521	2
0	14798	3533.962030324072	3
0	14799	3534.738003782342	2
0	14804	3535.066048427537	1
0	14809	3535.248660669004	0
0	14879	3557.818413260778	1
0	14880	3558.267107217032	0
0	14912	3568.790822898157	1
0	14914	3569.39919580713	2
0	14915	3570.124582306944	1
0	14921	3570.780585196665	2
0	14923	3573.039907972034	3
0	14925	3574.173897888182	4
0	14927	3574.450319410171	3
0	14932	3575.129326399012	2
0	14943	3577.553173712323	1
0	14948	3577.739461663266	0
0	14959	3578.239969483882	1
0	14960	3579.194079028669	0
0	14964	3579.29542104872	1
0	14967	3580.310715032799	0
0	14994	3588.821444063493	1
0	14995	3589.632734120897	0
0	15001	3590.963975488855	1
0	15004	3593.657972856056	0
0	15008	3594.373164856304	1
0	15012	3596.807209394954	2
0	15018	3597.955267813962	3
0	15019	3598.427134541167	2
0	15024	3598.676161087237	1
0	15029	3598.959718779719	0
0	15033	3598.967204695597	1
0	15037	3599.890114730911	0
0	15043	3599.955457970484	1
0	15047	3601.525520003951	0
0	15053	3603.897342999328	1
0	15055	3604.390286569369	2
0	15056	3604.629212968608	1
0	15060	3605.296519022961	2
0	15062	3607.089582335212	3
0	15065	3608.747872546407	2
0	15071	3610.31028401625	3
0	15073	3611.180727506619	4
0	15074	3612.078092276754	3
0	15079	3614.994459927924	2
0	15086	3616.26405835942	1
0	15097	3620.150290464463	0
0	15116	3623.272742464565	1
0	15117	3623.54730739468	0
0	15128	3627.515160854538	1
0	15134	3629.743162515517	0
0	15144	3631.909075181699	1
0	15145	3631.974841468726	0
0	15181	3636.749423560047	1
0	15185	3639.210276611612	2
0	15186	3640.029663058144	1
0	15193	3640.787617852244	2
0	15194	3641.412836205679	1
0	15199	3642.313071209308	0
0	15208	3643.120006789013	1
0	15214	3644.51397247782	2
0	15215	3644.798126215415	1
0	15221	3646.611460169633	0
0	15242	3651.744221552762	1
0	15245	3652.669455616441	0
0	15251	3653.829106084991	1
0	15253	3654.689478229404	2
0	15257	3654.917755652461	3
0	15258	3655.113453188776	2
0	15264	3656.500219637152	3
0	15268	3657.960573934645	4
0	15270	3658.098736431056	5
0	15271	3658.378808847282	4
0	15280	3660.083227176977	3
0	15284	3660.210342565035	4
0	15289	3662.728471475169	3
0	15296	3663.911446538005	2
0	15300	3666.931875492075	3
0	15303	3667.733183954757	2
0	15308	3669.607917663755	1
0	15312	3670.805333742097	2
0	15320	3672.47721524447	1
0	15325	3674.169080999282	0
0	15331	3674.725249137844	1
0	15332	3675.477457548957	0
0	15336	3675.806569051711	1
0	15338	3676.003701877982	2
0	15340	3676.074864056375	3
0	15343	3677.197392779257	2
0	15351	3679.215410010406	1
0	15356	3679.259075156903	0
0	15372	3683.393393763552	1
0	15374	3684.066862497094	0
0	15378	3684.507921086751	1
0	15381	3684.82685152885	0
0	15397	3686.587217537005	1
0	15400	3687.306209835162	2
0	15402	3687.696919157752	3
0	15404	3688.168770855591	2
0	15409	3689.20654130941	1
0	15417	3691.16611649533	0
0	15424	3693.222158644049	1
0	15425	3696.274000825392	0
0	15452	3703.01688704538	1
0	15455	3703.923411423556	0
0	15461	3703.933669612943	1
0	15464	3704.672100851398	0
0	15498	3712.177304455195	1
0	15500	3712.729115362453	2
0	15502	3713.152909005575	3
0	15504	3713.741361285093	4
0	15505	3714.306218535291	3
0	15511	3714.608437309005	4
0	15512	3715.097687504066	3
0	15521	3716.521016199614	2
0	15528	3717.338865716395	1
0	15534	3717.552643785235	2
0	15535	3717.813823633912	1
0	15542	3718.354461153916	2
0	15543	3718.39332283942	1
0	15549	3720.175614759771	2
0	15550	3720.968160078646	1
0	15554	3721.009119321991	2
0	15556	3722.512481527371	3
0	15561	3723.200802917931	2
0	15566	3724.164159788516	1
0	15576	3724.535744760143	2
0	15577	3725.160228443582	1
0	15582	3725.640041400668	0
0	15588	3726.1262096561	1
0	15594	3728.078419508655	2
0	15595	3728.129576716928	1
0	15601	3729.343469800753	0
0	15623	3733.230438430318	1
0	15624	3734.76332368804	0
0	15636	3736.712715557363	1
0	15637	3737.411778952949	0
0	15649	3739.779040437733	1
0	15653	3740.743593043807	2
0	15654	3741.824788236313	1
0	15659	3742.191732296254	0
0	15670	3743.650227387599	1
0	15676	3745.281551128472	2
0	15680	3745.460632831976	3
0	15683	3748.239682065061	4
0	15687	3748.568964826412	5
0	15688	3749.073615962587	4
0	15695	3749.697316156685	5
0	15696	3751.021870853089	4
0	15702	3752.966216373872	3
0	15708	3753.860017712162	4
0	15712	3754.580228452768	3
0	15717	3754.720489967962	2
0	15723	3755.006955031939	3
0	15724	3755.989464342635	2
0	15730	3757.256621538036	1
0	15735	3759.700947424494	0
0	15739	3760.415225885301	1
0	15743	3763.709644196775	2
0	15747	3764.607043843358	1
0	15753	3764.941757576654	0
0	15778	3769.152383097286	1
0	15779	3769.191199961951	0
0	15788	3770.398050908265	1
0	15794	3772.116848826602	2
0	15798	3775.35017626815	1
0	15803	3775.447653091619	0
0	15814	3777.284854249535	1
0	15816	3777.338365255506	2
0	15819	3778.274544865931	1
0	15825	3778.657060386482	0
0	15848	3783.95801455342	1
0	15850	3784.318553721299	2
0	15852	3784.503238918085	3
0	15853	3785.765866735992	2
0	15859	3786.388360530552	3
0	15860	3786.395347370693	2
0	15865	3786.546606801923	1
0	15874	3791.527278499535	2
0	15877	3792.720674626267	3
0	15879	3793.447951368727	4
0	15881	3793.494071564627	5
0	15883	3793.94962105154	6
0	15884	3794.76485785124	5
0	15890	3795.702802991496	4
0	15895	3796.186352361896	3
0	15900	3796.222651416379	2
0	15910	3797.942179954217	3
0	15911	3799.077190700317	2
0	15917	3800.488627120895	1
0	15923	3800.519753424965	2
0	15924	3800.583100036338	1
0	15929	3800.679763192254	0
0	15963	3811.506589789238	1
0	15965	3814.044538177942	2
0	15966	3815.682151813691	1
0	15974	3816.486418656712	2
0	15977	3817.161353045918	3
0	15978	3817.517468307307	2
0	15985	3818.296749790683	1
0	15991	3819.038332243161	0
0	16002	3820.54463650625	1
0	16005	3822.247503554915	0
0	16009	3822.517363019394	1
0	16012	3823.106476036279	0
0	16027	3825.842593892394	1
0	16028	3825.94855221587	0
0	16053	3830.951454318288	1
0	16054	3831.08632953669	0
0	16060	3831.81559108626	1
0	16062	3832.587158845403	0
0	16068	3832.729557716725	1
0	16069	3833.076411055137	0
0	16075	3833.086801754052	1
0	16080	3834.427923004406	2
0	16081	3835.313992183885	1
0	16090	3836.494051846484	2
0	16091	3836.529333231703	1
0	16096	3838.491357990555	0
0	16102	3839.178953331219	1
0	16103	3839.306338815714	0
0	16109	3842.20799267305	1
0	16110	3842.816500990016	0
0	16128	3845.178991688899	1
0	16132	3846.306430403923	0
0	16154	3848.304057817643	1
0	16156	3848.803256791155	2
0	16159	3850.738569428068	1
0	16166	3851.274797745798	2
0	16169	3853.896543554169	1
0	16174	3854.383791669503	0
0	16208	3861.836249690759	1
0	16212	3862.804890176326	2
0	16219	3864.161517264381	1
0	16224	3864.247379477851	0
0	16228	3864.995862919988	1
0	16231	3867.725237614465	0
0	16235	3868.606872604086	1
0	16238	3869.354049535186	0
0	16253	3872.076297119929	1
0	16257	3872.750362753635	0
0	16279	3876.465312720371	1
0	16284	3880.1538702338	0
0	16304	3884.671591590335	1
0	16305	3885.346286513781	0
0	16320	3888.32716527571	1
0	16321	3889.168172941282	0
0	16332	3889.456313002657	1
0	16335	3890.060029734465	2
0	16339	3891.939958559301	3
0	16340	3891.993283725264	2
0	16346	3892.250738371058	3
0	16347	3892.38881985487	2
0	16352	3892.780040377397	1
0	16357	3894.438674765998	0
0	16371	3895.785798582426	1
0	16373	3895.944146875801	2
0	16380	3899.434530681699	1
0	16386	3901.0720751279	0
0	16400	3902.346073177212	1
0	16401	3902.720023021687	0
0	16415	3903.131070112233	1
0	16417	3903.379377623228	2
0	16420	3904.2367312231	1
0	16427	3904.973167003016	0
0	16456	3912.85275203743	1
0	16460	3914.021295177822	0
0	16476	3915.848549032378	1
0	16478	3916.043241761633	2
0	16481	3916.338714917254	1
0	16487	3916.948745852104	0
0	16499	3922.486928997605	1
0	16501	3924.137002867154	2
0	16504	3926.385013148165	1
0	16509	3926.739849835363	0
0	16518	3928.92427395024	1
0	16524	3929.891772011405	2
0	16527	3930.514080890095	1
0	16532	3931.304058869661	0
0	16544	3932.803998327582	1
0	16546	3934.745372166343	0
0	16562	3936.324394130517	1
0	16563	3937.736967461763	0
0	16601	3948.385383314697	1
0	16604	3948.974982018705	0
0	16613	3950.563762491981	1
0	16616	3951.189770874495	0
0	16625	3953.156963391624	1
0	16629	3954.510479837383	2
0	16632	3956.467708424705	1
0	16637	3957.018379278156	0
0	16643	3957.022039060995	1
0	16644	3958.217226407248	0
0	16668	3965.626203700461	1
0	16670	3966.701232578897	0
0	16678	3966.910650770123	1
0	16681	3968.114673413751	2
0	16682	3968.438672686678	1
0	16687	3968.951080408191	0
0	16746	3990.771746888436	1
0	16747	3991.199789284448	0
0	16789	4005.24890988052	1
0	16800	4010.380262431592	0
0	16837	4019.410298328041	1
0	16839	4020.208543494927	2
0	16843	4023.141044805903	3
0	16846	4024.687531484424	2
0	16852	4025.87796490504	1
0	16858	4027.568242349914	0
0	16871	4028.337657913755	1
0	16873	4028.608382779994	0
0	16882	4028.965553911506	1
0	16884	4029.691284270854	2
0	16887	4030.024645304321	1
0	16894	4035.12052009875	0
0	16910	4038.276469586481	1
0	16911	4038.298183926963	0
0	16934	4040.41473119297	1
0	16937	4041.772470576243	2
0	16939	4041.974482411492	3
0	16941	4042.53959183476	2
0	16948	4042.566606803715	3
0	16952	4044.628473332146	2
0	16958	4044.742336438847	3
0	16960	4045.031511151747	4
0	16962	4045.101088448666	5
0	16964	4046.957387947005	4
0	16969	4047.255027838915	3
0	16974	4047.37995141443	2
0	16978	4048.043845526613	3
0	16982	4049.891784445854	2
0	16987	4050.554716167406	1
0	16991	4051.111698855771	2
0	16997	4053.905145092681	1
0	17002	4054.202800522348	0
0	17008	4057.157509895443	1
0	17009	4057.851196461537	0
0	17034	4061.930037918589	1
0	17036	4062.102459875167	2
0	17037	4062.367479857248	1
0	17044	4063.094857911444	0
0	17055	4064.710235808435	1
0	17059	4066.877376019184	2
0	17060	4067.230007148574	1
0	17066	4069.708450104351	2
0	17068	4069.738294375034	1
0	17074	4069.902275293447	2
0	17075	4070.107578273053	1
0	17082	4072.19217242447	0
0	17091	4073.35061138682	1
0	17098	4076.944622933719	0
0	17104	4077.053178132033	1
0	17106	4078.555247641339	0
0	17112	4078.637586812477	1
0	17113	4078.699982194351	0
0	17163	4092.948465392071	1
0	17166	4094.364137256866	0
0	17190	4101.632668223789	1
0	17191	4102.390767757088	0
0	17197	4104.594024079214	1
0	17203	4106.269198185839	0
0	17209	4106.425806502489	1
0	17210	4106.887583138104	0
0	17223	4109.159379904064	1
0	17228	4112.024931564383	0
0	17274	4121.661210411404	1
0	17278	4123.078539670385	2
0	17279	4123.661844028196	1
0	17283	4125.716374149841	2
0	17287	4126.509760480486	3
0	17293	4128.491916225656	4
0	17295	4128.510179254874	5
0	17297	4129.081883598154	6
0	17299	4129.190869601622	5
0	17305	4129.205513555555	6
0	17309	4130.701456098553	7
0	17310	4131.909707873903	6
0	17315	4132.078336543292	5
0	17320	4134.913647749054	4
0	17328	4135.826915922459	3
0	17333	4136.109180953569	2
0	17341	4137.240028383949	1
0	17348	4139.572250822999	0
0	17354	4141.620544946682	1
0	17355	4142.041984709968	0
0	17368	4145.956660659023	1
0	17369	4147.240686587369	0
0	17405	4158.371036775401	1
0	17409	4160.172094129602	2
0	17411	4161.036926492167	3
0	17413	4161.730677472231	4
0	17414	4162.677385158591	3
0	17419	4164.382857192003	2
0	17425	4165.353812090722	1
0	17432	4165.479731956015	0
0	17436	4166.804102708697	1
0	17439	4168.181599666861	0
0	17454	4171.733049286454	1
0	17456	4172.057718779763	2
0	17457	4172.396844861493	1
0	17465	4173.440369694657	2
0	17468	4174.833551627202	1
0	17473	4176.004288636456	0
0	17485	4177.665874536939	1
0	17486	4177.800353044506	0
0	17516	4183.848089361968	1
0	17518	4183.927656227964	2
0	17519	4184.850800925473	1
0	17524	4185.042703609736	0
0	17554	4187.996578187092	1
0	17561	4193.191015189018	0
0	17588	4196.651401819544	1
0	17592	4197.764798775511	0
0	17599	4200.058111865177	1
0	17600	4200.239298801631	0
0	17606	4201.67600441426	1
0	17610	4202.251234276098	2
0	17613	4203.195574188889	1
0	17617	4205.844807452772	2
0	17620	4207.219524548846	1
0	17628	4211.01641990703	2
0	17630	4211.036631264978	3
0	17633	4211.132821064764	4
0	17634	4212.786307365263	3
0	17643	4213.493634484054	4
0	17645	4213.626459876041	5
0	17646	4214.629578439987	4
0	17651	4214.668121685157	3
0	17656	4217.066727062756	2
0	17670	4219.241505996277	1
0	17677	4219.884000274066	0
0	17683	4220.298171835488	1
0	17685	4221.272253887148	2
0	17688	4222.684426981376	1
0	17694	4223.496007147613	0
0	17731	4228.239157025689	1
0	17739	4234.205284563791	2
0	17741	4234.786530059264	1
0	17747	4235.157859820729	0
0	17759	4236.23120050745	1
0	17761	4237.129429029086	2
0	17762	4237.758342228314	1
0	17768	4239.113661345629	0
0	17779	4240.455306527462	1
0	17782	4242.17192615557	0
0	17804	4245.865992844668	1
0	17807	4248.41707748927	0
0	17822	4252.703796131056	1
0	17823	4253.039872272715	0
0	17841	4255.672426574693	1
0	17842	4256.139804772108	0
0	17859	4259.028900645058	1
0	17865	4262.013548388703	2
0	17868	4263.387786141837	1
0	17874	4264.720952598651	0
0	17880	4264.729177582051	1
0	17881	4265.62209726491	0
0	17885	4266.118167955734	1
0	17890	4267.086131526509	0
0	17913	4268.689675583479	1
0	17920	4271.119454750299	2
0	17924	4271.678310187534	3
0	17925	4272.409749261258	2
0	17931	4273.295710967595	1
0	17938	4274.47603921564	0
0	17946	4274.952677280797	1
0	17948	4275.491665640027	2
0	17949	4275.611380312048	1
0	17956	4278.002879361771	0
0	17960	4278.798549415611	1
0	17965	4283.223092488356	0
0	17995	4292.562290120556	1
0	17996	4293.272860897605	0
0	18002	4294.025089200863	1
0	18003	4295.017021602576	0
0	18021	4299.807133966311	1
0	18026	4303.129215381591	0
0	18033	4303.718619817291	1
0	18034	4304.168575954748	0
0	18046	4306.679924110374	1
0	18051	4308.132171186581	2
0	18052	4308.561132836226	1
0	18058	4308.747283858145	2
0	18062	4309.525094913049	3
0	18063	4310.606157533136	2
0	18070	4311.019534026623	1
0	18077	4312.533185518998	0
0	18091	4313.826347577838	1
0	18095	4315.066035151151	2
0	18096	4315.376628804123	1
0	18102	4316.372736237397	0
0	18110	4317.012484649472	1
0	18112	4317.468923360331	2
0	18113	4317.683466618945	1
0	18119	4318.000285948801	2
0	18120	4318.98888891544	1
0	18125	4320.525579913192	0
0	18137	4321.948237332017	1
0	18140	4322.581630910351	2
0	18141	4322.942839163862	1
0	18146	4323.192244929344	0
0	18157	4323.853357451984	1
0	18159	4324.72416936304	0
0	18175	4328.648217198109	1
0	18177	4329.167113374311	2
0	18183	4331.741803890451	3
0	18184	4331.943123388608	2
0	18191	4332.883847882846	1
0	18196	4333.893631080319	0
0	18253	4350.049217714235	1
0	18255	4351.060877923247	2
0	18260	4354.368822674071	1
0	18265	4355.626234804241	0
0	18294	4366.841739562988	1
0	18295	4368.205654264498	0
0	18314	4371.868928067353	1
0	18316	4373.720677442974	2
0	18318	4374.914671758401	3
0	18321	4376.913708168739	2
0	18326	4377.481360949728	1
0	18330	4379.215269708759	2
0	18334	4379.638066728773	3
0	18338	4381.243300048344	4
0	18342	4382.396970484231	5
0	18343	4382.78485608156	4
0	18349	4386.094573572635	5
0	18355	4386.846517751488	4
0	18361	4387.831549699189	3
0	18367	4387.871154527631	4
0	18372	4390.944756728715	3
0	18377	4391.272851791904	2
0	18385	4391.666181390876	3
0	18387	4392.276081268245	2
0	18392	4392.396127857504	1
0	18397	4393.187049582659	0
0	18421	4398.284956462304	1
0	18426	4398.438460785599	2
0	18428	4400.025986675885	3
0	18429	4400.047580923381	2
0	18434	4400.278185558405	1
0	18440	4401.352669032208	0
0	18461	4405.110506526655	1
0	18467	4407.612325907351	2
0	18468	4408.231841597676	1
0	18473	4408.34847458784	0
0	18484	4411.332652315378	1
0	18486	4411.578605335653	0
0	18496	4413.589130566002	1
0	18500	4414.291029756453	0
0	18523	4417.882107555957	1
0	18526	4418.377783567871	0
0	18558	4425.314818103374	1
0	18559	4426.300361934124	0
0	18574	4429.099593738042	1
0	18576	4429.406128121234	2
0	18577	4429.871698427711	1
0	18582	4430.414020938142	0
0	18589	4431.940145995712	1
0	18591	4431.977845717388	2
0	18593	4433.163121622657	1
0	18598	4433.809113385702	0
0	18638	4445.952154248065	1
0	18639	4446.810355579115	0
0	18643	4447.760421651353	1
0	18647	4448.353235391836	2
0	18648	4448.897246215296	1
0	18654	4450.339528813827	2
0	18660	4451.609625165216	1
0	18667	4452.064787115551	2
0	18668	4452.885041481443	1
0	18677	4454.127100833217	0
0	18694	4456.370427734279	1
0	18695	4456.98732379436	0
0	18708	4457.632930064855	1
0	18709	4458.501959394422	0
0	18730	4461.239551098161	1
0	18731	4462.411553592211	0
0	18738	4463.129611460944	1
0	18739	4463.838036973975	0
0	18753	4465.750518477487	1
0	18754	4467.024605591577	0
0	18771	4469.646723807155	1
0	18772	4469.958914369801	0
0	18790	4473.784288902034	1
0	18794	4476.050211246041	0
0	18809	4480.254664078851	1
0	18811	4480.884220658943	2
0	18813	4481.137059463618	3
0	18815	4481.320061358405	4
0	18816	4482.482514652056	3
0	18821	4482.765088535781	2
0	18826	4483.681697639089	1
0	18830	4483.791104702159	2
0	18833	4486.960183841334	1
0	18837	4486.974997693983	2
0	18842	4489.740042053477	1
0	18850	4491.094254324801	2
0	18853	4491.468854100272	1
0	18859	4491.680041826099	2
0	18862	4493.1027922456	3
0	18864	4494.519851583132	4
0	18865	4494.700828130729	3
0	18870	4495.100914678401	2
0	18875	4495.257863148347	1
0	18879	4498.100650788836	2
0	18881	4498.160991347625	3
0	18884	4498.922818480385	2
0	18889	4499.416036842822	1
0	18896	4501.030575894099	0
0	18931	4511.251756695455	1
0	18933	4511.811042728547	2
0	18935	4512.907475632551	3
0	18936	4513.730431340357	2
0	18942	4514.192977101664	3
0	18944	4515.483310313181	2
0	18950	4517.125589078517	1
[...]
5	114159	27667.3468547646	61.703279851932
5	114164	27667.828343576549	56.656202929261
5	114169	27670.408913313002	56.230219820349
5	114174	27672.851320497758	57.251474491195
5	114185	27674.044347016987	49.84049641334
5	114209	27677.226986293808	52.128343917681
5	114233	27685.70909772224	53.686578832444
5	114252	27692.370562308298	58.350330889611
5	114258	27693.644995427759	59.536018365613
5	114265	27694.215714075998	60.073753559608
5	114275	27695.603863958537	56.107335954405
5	114283	27700.775085690046	50.824360873756
5	114294	27706.29719648336	48.437176694331
5	114301	27708.683274360633	35.527239341331
5	114315	27711.384077790564	36.296082994433
5	114328	27713.258095297264	37.168074236241
5	114339	27715.343202500756	25.926053556723
5	114364	27722.375822776791	0.891410297353
5	114382	27730.198286358054	3.17235685697
5	114386	27730.694870650905	2.838288679595
5	114398	27736.077238268233	3.135871173375
5	114460	27752.117806855092	15.093163906326
5	114474	27756.16571751326	17.300484748176
5	114496	27760.591057112215	16.961338806012
5	114509	27764.128960361632	19.644688138144
5	114516	27769.765982163512	14.631241545959
5	114523	27770.280419546348	14.917661023738
5	114529	27771.285279035851	11.312484519902
5	114540	27774.551077854895	12.70929803649
5	114570	27785.009494702858	20.7582829062
5	114578	27786.571448740256	16.369827619305
5	114583	27786.592511752075	12.417975180837
5	114590	27788.112907443673	4.169537980873
5	114597	27791.866104319126	7.912394392869
5	114602	27792.308811667581	6.516485425797
5	114609	27794.44909561106	6.763423317726
5	114615	27797.361654985811	4.818826958142
5	114633	27802.481886199001	3.85116952326
5	114656	27804.579991435342	4.812463387913
5	114661	27807.414333481608	6.443364574251
5	114668	27812.421321352058	10.132585216012
5	114677	27815.030747826276	3.099823092962
5	114737	27827.842570078616	7.442852406049
5	114742	27827.868816745128	6.991732697807
5	114754	27832.288921285204	4.155591252485
5	114765	27837.847759551694	9.642444202367
5	114798	27846.711403590599	15.24516605233
5	114806	27850.933701551	17.233932228919
5	114817	27853.95860930612	13.58357176207
5	114824	27856.077264956314	14.741124152299
5	114839	27858.260106520533	16.205406205059
5	114846	27860.485463224834	17.14416102599
5	114851	27861.444951799197	4.980374977658
5	114856	27862.704536788727	6.187567101043
5	114867	27866.136154965446	5.720267484259
5	114887	27868.25737822137	4.921016871497
5	114894	27870.869887257073	5.77649997937
5	114898	27872.798969818328	2.965851025681
5	114948	27882.343212056364	5.799796687705
5	114954	27883.22171658609	4.924655491844
5	114963	27885.346173873855	3.855212554014
5	114986	27890.70833701886	4.680048273968
5	114996	27891.292161647313	3.945301018112
5	115008	27892.587563767572	0.886927623843
5	115012	27892.953398457436	0.733870082186
5	115141	27916.298682909369	11.712704317946
5	115146	27916.479555930793	9.556253451962
5	115157	27923.985344490087	16.631227451092
5	115181	27932.663941677376	19.039075257883
5	115186	27934.383145757042	18.443253442509
5	115190	27935.801226889749	19.693244107211
5	115214	27941.783817401411	3.304887857902
5	115232	27948.561734636725	1.910485787665
5	115239	27949.634660563389	0.647914302681
5	115275	27961.009882651496	5.656377223979
5	115655	28068.350038804926	109.0455077945
5	115666	28070.549427291173	109.74543634519
5	115677	28071.339833025135	108.54604505719
5	115684	28076.081557263552	107.77351220277
5	115696	28077.16613737284	106.51897235344
5	115711	28081.93160559272	109.39401159139
5	115739	28086.907168782629	92.315779492536
5	115746	28088.115130219554	90.527239458489
5	115769	28090.082664708772	83.918586797871
5	115803	28100.122124079215	93.488558160606
5	115855	28116.471904452476	88.32656847991
5	115865	28116.608250054072	83.582227326925
5	115872	28117.606309634748	83.595525913465
5	115888	28121.219221656774	86.089133927218
5	115899	28122.516990876226	82.07492699169
5	115908	28128.268828340858	87.747767686007
5	115920	28129.590144116881	88.244004127673
5	115925	28130.283010830017	88.806387663825
5	115930	28130.508291812891	83.580008367788
5	115944	28134.963000679602	77.0332426248
5	115971	28139.450456648252	76.637194300826
5	115978	28139.817314727519	76.730280860438
5	115987	28145.292489153145	81.644541051319
5	115998	28147.421761764728	83.444655811329
5	116007	28150.713496504619	84.902459492432
5	116041	28155.354977662399	87.56486240621
5	116046	28156.813096941079	87.842984085253
5	116052	28158.696208091796	77.073903736362
5	116058	28160.14382424137	76.493771232304
5	116063	28161.386466574924	75.151184359405
5	116070	28164.978544809723	78.581601474215
5	116089	28170.558952887314	80.953884307113
5	116115	28173.74709257338	82.043291124101
5	116143	28178.521120620711	82.072974412508
5	116148	28180.695953561456	82.992605206204
5	116159	28187.115121696843	89.327402871424
5	116178	28190.107888215727	86.381406028458
5	116183	28190.485654909495	76.273479422604
5	116188	28192.827903248513	67.009895334846
5	116195	28196.480193285914	67.68931086397
5	116209	28198.223313034116	62.637505661582
5	116231	28201.756832088922	64.776729774818
5	116236	28202.57988754872	63.089645780221
5	116245	28203.443331642211	62.805267244952
5	116252	28206.461758218636	55.28611619677
5	116257	28208.086294540943	41.011212629371
5	116262	28211.393956412161	42.648311992944
5	116269	28211.973005230911	40.155743115127
5	116290	28220.970567589195	20.28636673559
5	116371	28238.734827437785	37.288414910489
5	116390	28241.02083740472	38.103567331487
5	116399	28245.186388780976	42.063063635066
5	116410	28248.076555035875	44.373276166997
5	116417	28249.797437918365	31.710035705089
5	116430	28253.422397958589	28.528626812782
5	116440	28254.874336083519	29.675201450945
5	116451	28258.631229334853	19.785361114396
5	116457	28259.528913280607	4.131793242346
5	116461	28261.169928856749	4.354906714364
5	116478	28269.865793811016	0.546344273325
5	116498	28277.30112086225	4.271353612872
5	116539	28285.510301088586	10.214685059405
5	116544	28285.548412875175	5.561645607835
5	116549	28286.038497995174	5.630025144884
5	116558	28286.941631733361	6.485239409963
5	116568	28288.556103062218	2.033619867197
5	116591	28296.514446725709	6.003463541596
5	116621	28303.836569251435	1.487736969006
5	116636	28309.05434428049	5.186293374046
5	116663	28313.498968656104	6.507517097994
5	116688	28322.107894696627	11.067754745155
5	116697	28323.005308865497	9.598918785699
5	116720	28327.134041524247	10.74172313604
5	116725	28327.749699864783	5.248463667526
5	116736	28334.243258167826	7.989910781591
5	116757	28337.549466040128	4.874969223795
5	116761	28339.113593777205	3.042593772662
5	116782	28349.979840921136	2.135034448129
5	116794	28356.407303102913	0.378237303315
5	116801	28359.688458427696	1.105879021003
5	116826	28366.491837470913	3.549908637126
5	116842	28369.503224870026	4.363403934891
5	116849	28371.588153051027	6.251961459328
5	116881	28381.80101544027	16.298297065295
5	116886	28382.661202891392	5.155783132449
5	116897	28385.079661364845	3.630960269899
5	116910	28386.883538954913	2.364714010045
5	116929	28392.894706971737	2.354903053667
5	116977	28408.42878304042	4.467078896042
5	117008	28414.978574687274	10.1665525719
5	117017	28415.348309138137	2.748611977606
5	117084	28436.824578922357	15.397113637117
5	117091	28440.346526675752	17.493818179599
5	117107	28444.301398842798	15.497291328756
5	117117	28445.430135284202	1.385917162778
5	117190	28466.001495844971	15.026335663417
5	117195	28466.328531802864	14.840403844765
5	117210	28478.373118779236	10.33738603217
5	117253	28487.317961142715	13.299683415867
5	117300	28507.195292006897	8.519721792769
5	117313	28513.640390033113	11.551509806139
5	117418	28535.951610224735	33.472656548325
5	117438	28537.17463696639	30.157351567064
5	117443	28538.641702109012	23.943272559947
5	117454	28540.988319932881	21.105210332528
5	117476	28547.271671500112	26.122636816348
5	117482	28548.254745027193	21.407491120845
5	117489	28549.946320336102	19.030279073141
5	117500	28553.010219889419	20.96680181308
5	117507	28556.917056918752	24.524218796041
5	117512	28558.130836353691	24.269527520188
5	117517	28558.77866144429	22.314085872433
5	117525	28560.143559599777	20.471314884907
5	117537	28561.247245298838	19.708227957843
5	117565	28564.859037461001	22.127314031925
5	117602	28576.540961282474	22.98572882025
5	117628	28589.558450021493	22.605025800937
5	117648	28593.58114729053	24.893161979108
5	117683	28600.897244531792	22.471657414987
5	117726	28608.990459293123	24.989867263838
5	117742	28613.629626588488	18.760574948067
5	117754	28621.79862168312	26.258145296029
5	117798	28636.801265330489	34.39018158309
5	117805	28640.059393139942	35.517447080492
5	117819	28641.486799046288	24.518793435134
5	117839	28643.828320431877	15.964684037314
5	117846	28646.145319600582	16.149163241713
5	117851	28650.487781818529	7.490816021601
5	117865	28654.037075665807	0.115197682578
5	117932	28668.23301186752	13.437707572469
5	117955	28672.380622284183	16.45845540685
5	117963	28674.419487941999	18.365465260709
5	117972	28674.50692083422	17.682101806057
5	117983	28675.945933168375	15.774177574398
5	117995	28677.697823140677	9.944347239658
5	118009	28679.226746945016	5.871195140661
5	118021	28685.433392465575	10.961250378923
5	118028	28687.064887189284	10.350297277588
5	118049	28691.4486081303	13.212941407502
5	118103	28702.541395275571	2.733545362438
5	118108	28703.282768770419	2.075236187606
5	118123	28709.379331965673	4.482292408291
5	118146	28718.454049865038	2.181878056622
5	118162	28726.402982270656	5.712001977949
5	118184	28728.596410065326	5.897146367258
5	118197	28731.053145077307	7.196685416266
5	118203	28732.183092089966	3.95012177619
5	118207	28732.274921682288	2.350822899298
5	118264	28743.195979987814	7.377731709251
5	118269	28743.324946357135	7.254811957973
5	118274	28744.960189491693	7.069735170313
5	118281	28746.865344717367	6.991342747064
5	118358	28763.750145674699	0.929205327762
5	118362	28764.135053936668	0.980396084037
5	118388	28772.637906992811	0.595946696293
5	118403	28776.546630604281	0.444136743284
5	118435	28780.53523202281	0.279059685519
5	118464	28785.369634537284	3.241442018647
5	118469	28787.460816945566	5.184755463006
5	118473	28787.742331386216	5.291508309732
5	118480	28792.780077727104	0.622598816275
5	118516	28805.263297375562	2.468493554487
5	118531	28808.887008768863	0.250899660036
5	118540	28809.398635461351	0.708053433772
5	118587	28819.036692983322	9.91703363138
5	118594	28824.799511520449	14.903343729892
5	118619	28831.424336381143	18.984084880946
5	118650	28840.621079287625	14.818231180275
5	118680	28854.778536494614	3.128659408447
5	118700	28860.817818091728	7.426740480753
5	118707	28862.263465251237	0.036553206839
5	118733	28871.311062622651	6.768305276235
5	118766	28874.233874405688	5.88809781123
5	118770	28874.725338954749	1.399511865637
5	118780	28875.988410446021	1.166103454351
5	118784	28879.220864377226	3.681032287999
5	118801	28887.406804750031	3.905349231562
5	118846	28900.66283604871	13.994447516308
5	118868	28904.159429407666	17.087282731128
5	118894	28909.937431357284	0.97882434151
5	118926	28922.421078174721	1.01386428519
5	118975	28934.402252238632	3.699731526992
5	118979	28935.270451561266	3.063858213965
5	118989	28939.063930660243	0.410027958994
5	119005	28943.943369460002	3.715879584844
5	119041	28952.348962727849	0.044739961581
5	119065	28957.947442761819	0.885718927078
5	119077	28964.421939972214	0.849188895193
5	119085	28966.354889482577	2.115593433676
5	119138	28981.874836749911	2.987127850514
5	119181	28990.500891462226	8.155852020657
5	119193	28995.01721851127	6.327536573293
5	119216	28997.645151672344	4.834437706973
5	119251	29005.712497841208	6.036202913617
5	119259	29007.860126936179	3.515010897583
5	119263	29007.861433686361	1.196180286438
5	119285	29020.95644184911	2.994220591019
5	119434	29055.790419351237	23.482224407545
5	119440	29056.510795954589	23.215872917601
5	119446	29057.295056163689	21.609124179878
5	119455	29060.26806564916	20.668946653101
5	119460	29060.401608444775	7.863139378998
5	119467	29062.307216641494	3.731494426362
5	119499	29070.772964456796	6.086593479461
5	119573	29086.909441020315	19.582898689398
5	119584	29088.960374147988	18.590980359536
5	119591	29090.18720818291	16.416239198677
5	119603	29093.012100649343	16.982429895943
5	119610	29096.731327419376	17.074145365027
5	119617	29098.632317420979	16.798133403431
5	119638	29105.389126892006	23.320135415309
5	119684	29116.428496076935	23.718108081676
5	119701	29117.639695751445	19.528003856194
5	119710	29121.026266518756	20.650706849872
5	119726	29125.355569316625	24.217292912201
5	119733	29125.871548797927	20.620324169137
5	119748	29128.970978427786	6.508831593688
5	119758	29131.4094735007	8.741508081029
5	119765	29133.67473120879	1.171846955467
5	119783	29140.07498559561	4.4461979943
5	119808	29145.260195601526	1.883360007853
5	119864	29164.628086128946	0.357788929619
5	119874	29168.031915127191	2.443042755041
5	119888	29175.367793935755	4.11840995405
5	119899	29179.137029416157	6.817359114572
5	119914	29180.860362348571	6.391318609425
5	119919	29183.271873116912	8.092033401281
5	119923	29183.712744971332	5.762352582505
5	120059	29217.72100303051	32.092075477842
5	120065	29218.248772675125	29.169920231241
5	120073	29218.445718591728	26.744421828813
5	120082	29219.731600723682	27.011497132116
5	120089	29222.220566591874	28.943558577604
5	120099	29227.145237600869	24.297532761977
5	120110	29229.140645007302	19.024099558013
5	120202	29261.722052094629	46.694587613395
5	120235	29266.989291960331	51.351270985645
5	120248	29271.3723334543	53.020684498361
5	120289	29280.083870222025	61.223059290751
5	120343	29291.244478952591	71.612719082138
5	120356	29292.550044718061	64.180964464786
5	120397	29301.44464876379	72.269762720778
5	120409	29302.446014544853	69.624818661194
5	120414	29302.457078716955	55.078491146909
5	120420	29303.604432447812	53.304571596446
5	120425	29303.74186634357	50.783954761617
5	120438	29307.872328264014	48.510518270119
5	120465	29312.452935233144	51.786745166709
5	120470	29313.974338654235	52.889009859143
5	120477	29315.483994250054	47.346607569868
5	120487	29317.62403056999	44.903040641468
5	120492	29319.783173331074	44.724265362782
5	120497	29320.524951479765	38.92176922194
5	120504	29322.304741922889	38.670738061632
5	120516	29324.183323517107	34.160116667474
5	120527	29328.093031352095	36.138339988188
5	120561	29333.355058501313	39.534480962956
5	120614	29343.94134463015	46.31742522192
5	120631	29349.308507039934	44.641692738467
5	121043	29439.880969835338	132.50369657273
5	121048	29441.215265384736	116.49629037854
5	121054	29444.923970045362	113.0320681296
5	121059	29445.046717013118	108.84266979233
5	121070	29449.213612608558	112.15429289642
5	121103	29454.477609845894	115.70371074442
5	121116	29456.625685182924	110.32415661629
5	121126	29460.337309774005	94.488399007974
5	121131	29461.065964130933	88.032058838111
5	121139	29465.538767542076	91.406246180001
5	121144	29466.33154857603	86.838022073324
5	121149	29466.924590960974	59.465371585157
5	121154	29467.874274181315	53.795219516333
5	121159	29473.113960404747	55.851323054859
5	121164	29473.547971444319	52.768863851088
5	121169	29474.13342501647	51.401467685361
5	121178	29480.815084973922	56.840402024839
5	121189	29484.686294656173	56.390511365095
5	121194	29487.099885437039	57.375195454833
5	121201	29488.149142022263	50.617448034537
5	121214	29492.801740629651	46.931902944211
5	121221	29496.62710222069	40.788333342008
5	121236	29499.324658376205	22.978475940589
5	121265	29504.973790977841	12.976563639337
5	121275	29506.336430662509	6.873563044069
5	121289	29510.274443643457	3.009771397038
5	121309	29511.822200297837	0.201744586583
5	121316	29512.576744855511	0.510836748608
5	121335	29517.898219782704	4.431525860884
5	121439	29550.331508096654	7.353445957065
5	121452	29552.916630231513	7.051937672959
5	121465	29564.545096987144	17.204421662633
5	121475	29566.317479734387	5.944257209103
5	121482	29567.46749644445	5.621783938106
5	121493	29569.738360910131	7.798115583199
5	121509	29574.887339916262	4.602580045864
5	121516	29580.265518364788	8.653007681707
5	121532	29583.691372578598	11.843735322547
5	121546	29585.456547182793	11.404691316973
5	121567	29589.200144953266	14.640924437092
5	121573	29590.113394230564	6.431367767647
5	121579	29592.345498309789	5.933243635094
5	121583	29594.542924222247	7.053920791623
5	121612	29605.33333573163	6.203667285038
5	121626	29606.457175388309	1.115680039508
5	121630	29606.767363255458	1.020873638674
5	121658	29616.569908013256	5.899824030465
5	121674	29624.701546038703	11.442899986661
5	121697	29633.376604588277	13.157833341007
5	121749	29638.955068647227	6.452528828115
5	121799	29647.66741788718	10.537014310562
5	121813	29649.076060628716	11.918857771249
5	121820	29652.721959981931	7.970332094215
5	121860	29662.029885204419	14.267064153743
5	121879	29665.57513313735	11.593078878306
5	121896	29667.889525771099	5.076139132343
5	121903	29669.177608084982	3.630452269392
5	121917	29672.136122550336	3.608081254613
5	121936	29674.857730781231	3.452394422113
5	121941	29675.692969957134	4.203638824557
5	121948	29678.65265814692	5.493072482536
5	121996	29692.285017312489	9.902162489903
5	122002	29693.989645151306	10.281049727578
5	122007	29698.079141142226	10.644801309845
5	122030	29702.472236064319	1.537110494844
5	122075	29713.004462728152	1.43861175955
5	122104	29717.695891069617	0.805809664055
5	122108	29718.099290877225	0.66192148427
5	122128	29723.875825459208	1.100022359776
5	122143	29734.782518709462	0.111858066701
5	122160	29740.175074371756	1.486719039617
5	122170	29741.501163335454	0.968561058189
5	122220	29750.211516554061	3.465447818132
5	122236	29752.797535805714	1.61976868891
5	122254	29756.441602159065	0.470998992581
5	122261	29761.180740270311	0.196824439616
5	122316	29771.05653359023	1.777104071198
5	122342	29774.266198987028	2.731632485157
5	122379	29785.148448625587	11.357158226335
5	122388	29789.467437566594	13.865659192208
5	122413	29795.467366506146	18.67070653765
5	122468	29803.188774740891	26.126161472576
5	122474	29805.132901462842	24.363618254473
5	122481	29805.62336727699	22.980594391729
5	122494	29811.676053580279	15.126580584332
5	122525	29817.325192035673	2.300203225436
5	122533	29822.02289625229	4.97596348363
5	122537	29822.395801514647	4.461198513421
5	122567	29831.628144070592	8.009071176047
5	122612	29841.006395469487	15.372708865999
5	122617	29841.954332007735	12.974849385808
5	122622	29842.527580650134	8.02064371865
5	122629	29843.806345546832	3.306189103568
5	122636	29848.768062804814	4.784653602875
5	122646	29852.904003958708	2.076832799205
5	122657	29855.645943466864	3.893553860455
5	122672	29858.073140387044	3.444044390178
5	122680	29859.926721741881	1.407734610979
5	122696	29867.875385190278	5.426698827308
5	122710	29873.96745530589	3.830191768845
5	122743	29880.022090574318	1.00478544059
5	122773	29883.504902387508	3.342236792214
5	122800	29891.540825067011	3.126874708136
5	122807	29893.02016161616	2.086386310829
5	122838	29896.52096354613	1.744553194242
5	122848	29898.600097177139	2.351645867574
5	122876	29908.162755548335	1.001046486301
5	122883	29909.392049769369	0.075012033469
5	122901	29921.728261401518	2.003660641056
5	122938	29927.601729783664	2.201249076952
5	122952	29929.993987368539	1.417858201272
5	122969	29932.684180546566	0.20220565467
5	122987	29938.330605109277	3.840223722187
5	123008	29942.073317717429	6.778001836874
5	123047	29946.738138208715	9.664673278114
5	123056	29948.121811708448	10.611012052093
5	123065	29949.859836119208	12.154870334704
5	123090	29954.553817560643	12.884091178533
5	123197	29981.611272114646	34.304472932322
5	123202	29981.805940927163	30.807207826119
5	123210	29986.04220020704	31.99742264658
5	123226	29988.342734699782	30.674996550638
5	123231	29988.94162105198	27.481085151729
5	123237	29993.434992748468	31.648211645349
5	123242	29993.456125500062	27.826413902014
5	123247	29995.792150687517	25.678505300657
5	123255	29996.564710092826	16.984996183011

