version 2
run Third-n3-17-20191016-17:05:05-10676
attr configname Third-n3
attr datetime 20191016-17:05:05
attr experiment Third-n3
attr inifile omnetpp.ini
attr iterationvars ""
attr iterationvarsf ""
attr measurement ""
attr network org.omnetpp.queueing.Pizza
attr processid 10676
attr repetition 17
attr replication ""
attr resultdir results
attr runnumber 17
attr seedset 17
param **.PS.maxInventoriedPS 3
param **.U1.interArrivalTime exponential(4s)
param **.U2.interArrivalTime exponential(6s)
param **.PS.serviceTimeForInventoryU1 exponential(1.4s)
param **.PS.serviceTimeForInventoryU2 exponential(1.4s)
param **.PS.serviceTimeDirectU1 exponential(1.8s)
param **.PS.serviceTimeDirectU2 exponential(1.8s)
param **.PS.probabilityProducing 0.8
param **.CS.serviceTimeU1 exponential(2.3s)
param **.CS.serviceTimeU2 exponential(2.3s)

vector 0 Pizza.EntryQueueU1 queueLength:vector ETV
attr interpolationmode sample-hold
attr title "queue length, vector"
vector 1 Pizza.CS queueLength:vector ETV
attr interpolationmode sample-hold
attr title "queue length, vector"
vector 2 Pizza.EntryQueueU2 queueLength:vector ETV
attr interpolationmode sample-hold
attr title "queue length, vector"
vector 3 Pizza.sink lifeTime:vector ETV
attr interpolationmode none
attr title "lifetime of arrived jobs, vector"
attr unit s
vector 4 Pizza.sink lifeTimeU2:vector ETV
attr interpolationmode none
attr title "lifetime of arrived jobs, vector"
attr unit s
vector 5 Pizza.sink lifeTimeU1:vector ETV
attr interpolationmode none
attr title "lifetime of arrived jobs, vector"
attr unit s
0	0	0	0
0	5	1.396329674268	1
0	7	2.246730910068	2
0	15	8.107354914916	1
0	26	11.034763139415	2
0	27	12.628167597443	1
0	34	16.462734181832	2
0	35	17.217610676726	1
0	41	18.755365941295	0
0	63	24.854477049982	1
0	65	25.044760938657	2
0	66	25.915988753834	1
0	74	27.10858936223	0
0	92	31.262679850578	1
0	94	33.027344482263	0
0	101	34.619916399012	1
0	102	34.838490349998	0
0	110	35.312374658651	1
0	114	36.32206601346	2
0	116	38.59737940584	1
0	121	38.7592985879	0
0	150	49.571892596144	1
0	152	49.959671542482	0
0	171	52.143426638263	1
0	173	55.368599147372	0
0	181	55.620815028317	1
0	182	55.87449188725	0
0	188	56.34044453394	1
0	190	59.526087382585	0
0	219	76.552628929424	1
0	222	78.729306463257	0
0	232	81.046572882341	1
0	236	81.766090567902	0
0	249	83.055053259174	1
0	250	83.452750095864	0
0	308	108.688579391449	1
0	312	109.197124737791	2
0	313	109.322690055453	1
0	318	109.702639587025	0
0	331	112.141005110393	1
0	334	113.748312345696	0
0	362	123.961133834162	1
0	365	124.836452430572	0
0	371	128.612863451128	1
0	372	129.875247502871	0
0	378	130.925495011484	1
0	379	133.379038865683	0
0	404	140.8075186624	1
0	406	142.082973255151	0
0	413	145.604641879525	1
0	415	147.455372149971	2
0	416	148.686656468729	1
0	421	149.104648557423	0
0	430	151.125611633952	1
0	433	152.018885857224	0
0	439	152.091437557351	1
0	440	152.432364289101	0
0	463	160.032411050221	1
0	464	162.012148093949	0
0	485	168.340269979503	1
0	489	173.572607216788	0
0	498	174.737372245761	1
0	501	175.628187691967	0
0	507	176.244226855783	1
0	508	176.533952711953	0
0	517	179.669130225482	1
0	520	181.378558550361	0
0	539	187.097206786274	1
0	542	188.170518252664	0
0	558	190.690902551635	1
0	565	194.259445579385	2
0	566	194.528596210661	1
0	572	195.256596899068	0
0	588	199.273141087759	1
0	590	199.651409949094	2
0	595	206.146294147553	1
0	602	208.481269607005	0
0	608	208.787538394636	1
0	609	210.214215679882	0
0	625	213.85719488189	1
0	627	213.864955068041	2
0	631	216.768241947701	3
0	633	216.995781359971	4
0	634	218.047488561023	3
0	640	218.576779993599	2
0	645	220.232892779907	1
0	651	222.426855197526	0
0	663	224.355221852724	1
0	665	225.012177794032	2
0	669	226.516243451779	1
0	674	226.980034854208	0
0	681	228.555726302586	1
0	684	230.585333349334	2
0	686	233.979072435956	3
0	688	234.865364507886	4
0	689	234.921706276224	3
0	695	235.053493259051	4
0	700	238.29591116022	3
0	711	240.915250111644	4
0	713	243.227089145256	5
0	715	245.764797880996	6
0	717	247.438857101344	7
0	719	247.85045021401	8
0	721	249.488413164686	9
0	725	250.541453483469	10
0	727	257.540663078224	11
0	728	257.701884392858	10
0	734	259.188250730754	9
0	741	260.726239023705	8
0	746	261.666810601917	7
0	754	263.110888413811	8
0	758	267.715442968393	9
0	760	268.126679621072	10
0	761	269.589681490929	9
0	769	275.035550576104	10
0	770	277.674609445399	9
0	776	280.39307444843	8
0	782	282.061388014248	7
0	787	284.475058595165	6
0	796	288.357440483336	5
0	805	290.920911117829	4
0	811	291.115740927164	5
0	814	294.437083533353	4
0	821	295.22051884268	5
0	823	295.523912916046	6
0	825	295.562140926668	7
0	826	296.043550535897	6
0	832	299.741591758587	7
0	834	303.813115417135	6
0	840	305.508326749882	7
0	842	305.943222448017	8
0	846	311.291178630005	7
0	852	311.341856236225	8
0	853	311.734353233022	7
0	860	314.903656707979	6
0	867	316.2343773829	5
0	873	317.097113920645	6
0	874	319.076346017027	5
0	884	320.291709149999	6
0	889	326.639349419712	7
0	890	327.657460347863	6
0	896	330.161089095419	5
0	902	331.18388103455	4
0	907	333.105752390428	3
0	914	337.578650078469	2
0	919	338.1408346119	1
0	924	338.223646325337	0
0	943	340.422190058102	1
0	947	341.392016677604	2
0	948	341.646060476422	1
0	954	342.319593106323	2
0	956	342.396660152094	3
0	957	342.977163209175	2
0	962	343.081829696641	1
0	967	343.919501008367	0
0	974	346.662638852527	1
0	975	346.790662040139	0
0	984	348.386479950157	1
0	985	349.636713534872	0
0	991	350.00823642273	1
0	993	351.011762845511	0
0	1024	360.2031928793	1
0	1028	361.786677647192	2
0	1030	362.403963991242	1
0	1038	364.237790109517	0
0	1050	370.559768473268	1
0	1054	371.887315534491	2
0	1058	375.596699352862	3
0	1059	376.456233133839	2
0	1066	378.142652276783	1
0	1074	378.749240258425	0
0	1085	379.7318719294	1
0	1090	382.039806050499	2
0	1093	382.515726741273	1
0	1099	382.601564529955	2
0	1102	384.42212302717	3
0	1103	384.499813606724	2
0	1110	387.500934267016	1
0	1116	388.040345062169	2
0	1121	390.608374071748	3
0	1123	391.290814489586	4
0	1124	391.648354518358	3
0	1132	393.578920719925	4
0	1133	394.233145213292	3
0	1139	395.620385306782	2
0	1144	395.79275750547	1
0	1150	396.464763102705	2
0	1151	397.483013696435	1
0	1155	398.629407884823	2
0	1159	401.687902064708	1
0	1169	405.663649374674	0
0	1190	410.685507250872	1
0	1192	411.317023253252	2
0	1193	412.075772463332	1
0	1202	413.271118588929	0
0	1222	416.223167559252	1
0	1224	416.788394105282	2
0	1225	417.134720557536	1
0	1230	417.289417216881	0
0	1243	422.71165939948	1
0	1245	422.720735813804	2
0	1246	424.239185009201	1
0	1252	425.981949026531	0
0	1274	433.766651590127	1
0	1275	435.942231434766	0
0	1294	442.206167612879	1
0	1298	443.99239358611	0
0	1305	445.563805239051	1
0	1307	445.664036835172	2
0	1309	446.953417273121	3
0	1311	451.410443067776	4
0	1312	451.859831346513	3
0	1319	455.114316583692	4
0	1321	456.92428248714	5
0	1322	457.945823440249	4
0	1328	458.530172261916	3
0	1334	460.016449953591	2
0	1343	468.208474355987	1
0	1348	468.751387357463	0
0	1354	468.897964704055	1
0	1357	469.985737375071	2
0	1358	470.122045268848	1
0	1365	471.847442996051	2
0	1372	480.397577115545	1
0	1381	484.350757386887	2
0	1382	486.750725962527	1
0	1387	487.095831184677	0
0	1399	489.482003708582	1
0	1400	490.069603775991	0
0	1421	494.305139646597	1
0	1423	494.360343589209	2
0	1427	498.449648746749	3
0	1428	500.878020828953	2
0	1433	501.596549301098	1
0	1439	501.678703722274	2
0	1442	504.046370125724	1
0	1448	504.642830836661	2
0	1449	505.76874597567	1
0	1457	507.016700164687	0
0	1475	508.016506057763	1
0	1476	508.45388190154	0
0	1482	511.276781672883	1
0	1484	511.427300633559	2
0	1486	512.96928916531	1
0	1491	513.013464688287	0
0	1495	515.018182944279	1
0	1497	516.059644648026	2
0	1502	517.215903424956	3
0	1507	519.375740944634	2
0	1513	520.320020380682	1
0	1518	520.424469613133	0
0	1527	521.970276925103	1
0	1530	523.051133260624	0
0	1542	525.825889502921	1
0	1543	529.038782191776	0
0	1554	530.336868334982	1
0	1555	530.943529912468	0
0	1569	536.376971766616	1
0	1570	537.08946490648	0
0	1578	537.38825716383	1
0	1581	538.406219873336	0
0	1590	540.761090666876	1
0	1591	541.033785956738	0
0	1604	541.653471781959	1
0	1611	547.942371709466	2
0	1617	555.551409017208	1
0	1623	556.273894444445	2
0	1624	557.438866237622	1
0	1629	558.991182208038	0
0	1641	561.841632003941	1
0	1642	562.36191521575	0
0	1652	562.878981351955	1
0	1657	564.647607952611	2
0	1658	566.140411453787	1
0	1664	566.216320277379	2
0	1665	566.313541584136	1
0	1672	567.373948385434	2
0	1673	567.786109701358	1
0	1679	568.808437259201	0
0	1687	569.727241854657	1
0	1691	571.705347868833	0
0	1704	575.004967744184	1
0	1705	575.42163368851	0
0	1726	581.363295505178	1
0	1729	582.422349960102	0
0	1741	585.860509215849	1
0	1743	585.869846113663	2
0	1749	587.93191476117	3
0	1752	589.324419544979	2
0	1757	589.936795553529	1
0	1762	590.184613137727	0
0	1768	590.257023796789	1
0	1769	591.051285006566	0
0	1775	593.156260697455	1
0	1777	593.250350492223	0
0	1783	594.229464074699	1
0	1784	595.514995563048	0
0	1790	597.89371072392	1
0	1794	601.421657624268	2
0	1798	603.130139742308	3
0	1799	603.812836039507	2
0	1807	603.988497713111	3
0	1809	604.555825809207	4
0	1813	607.671741768283	5
0	1815	607.690474822894	6
0	1816	608.084869260041	5
0	1821	608.234099390795	4
0	1828	610.401060231148	5
0	1829	610.858031452019	4
0	1835	611.056689421791	5
0	1836	613.182060149453	4
0	1840	613.795269798224	5
0	1845	615.206968715191	6
0	1846	615.475747540022	5
0	1855	618.347611644131	6
0	1858	622.598821301823	5
0	1863	623.540456228261	4
0	1871	624.635738598003	5
0	1872	625.355111324566	4
0	1877	625.980615404547	3
0	1882	626.149255084503	2
0	1889	627.038794972681	3
0	1890	627.55940229947	2
0	1899	629.456072746487	3
0	1903	633.136588086786	4
0	1904	633.579393276897	3
0	1909	634.566892926889	2
0	1914	634.751793767772	1
0	1924	637.661474691456	0
0	1930	638.41591325435	1
0	1934	640.902129441956	0
0	1942	644.540566276693	1
0	1943	649.560942644596	0
0	1950	651.316606757909	1
0	1951	654.714551786998	0
0	1957	654.733778666154	1
0	1959	657.59911119623	0
0	1993	667.815155614177	1
0	1996	674.842786622807	0
0	2006	675.78949850678	1
0	2012	681.103878738094	2
0	2013	682.291866032964	1
0	2019	685.673866974632	0
0	2025	686.043253478958	1
0	2027	687.477791996846	0
0	2049	692.627516861927	1
0	2050	693.216070219783	0
0	2058	695.924568239625	1
0	2059	696.490622632302	0
0	2074	701.974525652129	1
0	2076	702.231933459786	2
0	2082	705.516276224863	1
0	2088	706.163761733274	2
0	2089	706.263827526774	1
0	2097	709.362961051339	0
0	2104	710.655596118071	1
0	2106	713.116594082077	0
0	2112	713.509360759065	1
0	2116	717.774549639716	0
0	2122	721.409638256926	1
0	2124	721.831352015655	2
0	2126	723.314801295421	1
0	2131	725.390621023634	0
0	2164	733.950272304801	1
0	2167	737.712668444652	0
0	2201	748.452033302111	1
0	2202	749.471762165522	0
0	2210	751.70179562054	1
0	2211	752.011164349838	0
0	2217	753.138234637755	1
0	2222	757.119330071224	2
0	2224	758.524578180622	3
0	2225	761.012437588379	2
0	2232	765.257709500162	1
0	2240	765.90884271144	2
0	2241	766.469514998473	1
0	2248	769.167216486186	2
0	2250	770.00401954881	3
0	2251	771.232327846061	2
0	2260	781.002773128902	1
0	2266	782.179056229783	0
0	2278	785.843647656942	1
0	2279	786.769740020015	0
0	2298	787.701500801711	1
0	2301	789.196295829737	0
0	2307	789.78404827656	1
0	2309	790.041844966248	0
0	2315	790.594793364848	1
0	2317	790.649486380443	2
0	2320	792.223755155221	1
0	2330	794.470677197037	2
0	2332	794.68735427519	3
0	2333	796.258956332877	2
0	2338	796.746629160455	1
0	2347	797.505475636097	0
0	2359	799.301910663102	1
0	2362	799.883486091204	2
0	2363	801.266228766364	1
0	2368	801.3917438113	0
0	2393	807.056406848551	1
0	2395	808.808112611352	2
0	2399	813.161650331951	3
0	2400	813.162917215112	2
0	2406	813.479251847043	3
0	2407	813.829134668012	2
0	2414	817.366385387507	1
0	2419	818.005139667181	0
0	2431	819.752106245852	1
0	2434	821.422599256709	2
0	2436	821.553434532146	3
0	2438	821.935958911371	4
0	2440	822.519143116022	5
0	2441	823.149018835925	4
0	2448	823.620334335356	5
0	2449	824.069280443065	4
0	2454	824.08447531071	3
0	2459	826.090239380723	2
0	2464	827.584905832885	1
0	2469	830.61592210702	0
0	2478	835.726928255713	1
0	2480	835.944163152615	2
0	2482	836.000981239364	3
0	2484	836.967277469292	4
0	2490	841.156592742459	5
0	2491	842.013612734094	4
0	2496	844.18014115797	3
0	2500	845.955352937362	4
0	2504	848.409512310056	5
0	2514	852.908139740549	6
0	2518	856.222621441213	7
0	2519	857.894364081443	6
0	2525	858.348445208995	7
0	2527	859.627031900759	6
0	2533	859.746310771355	7
0	2534	861.037497929699	6
0	2539	862.496254307035	5
0	2544	862.891414027624	4
0	2551	864.60774053455	5
0	2552	864.811636895601	4
0	2561	866.953302389078	5
0	2564	867.728608474638	4
0	2569	868.558323009131	3
0	2575	869.72552536066	2
0	2581	871.369678023734	1
0	2586	871.460638006383	0
0	2599	875.514470523797	1
0	2602	880.01552896416	0
0	2615	882.430151003112	1
0	2619	884.567865766086	0
0	2640	892.190562000177	1
0	2641	899.43555045219	0
0	2653	901.959853987013	1
0	2656	903.300884889801	2
0	2658	904.605265099841	3
0	2659	904.988812285577	2
0	2664	905.672462374225	1
0	2671	909.553893066165	0
0	2729	941.987342177035	1
0	2733	942.575361984777	2
0	2734	942.668185844903	1
0	2740	944.038601061884	0
0	2752	947.119921131647	1
0	2753	947.957014784413	0
0	2759	950.756710141442	1
0	2760	951.393557219196	0
0	2769	953.314654130176	1
0	2771	954.102720372943	2
0	2779	957.763566836955	3
0	2781	958.188559174211	4
0	2782	960.863528167972	3
0	2789	961.224029928327	4
0	2793	963.542861934317	5
0	2796	965.812861319469	4
0	2801	965.988722081349	3
0	2807	968.167551679941	2
0	2816	969.124367962981	1
0	2821	969.259400463234	0
0	2829	971.214584666279	1
0	2830	971.889347983192	0
0	2837	973.469285444178	1
0	2838	973.813362949608	0
0	2844	974.705105929385	1
0	2846	974.922234011817	2
0	2852	977.880736407621	1
0	2857	978.210712586814	0
0	2871	981.900327991714	1
0	2874	982.073692908768	0
0	2880	982.089252331162	1
0	2881	982.113071460838	0
0	2909	990.305829156114	1
0	2912	991.853809569184	0
0	2932	1002.878595330982	1
0	2933	1005.251079493803	0
0	2939	1006.251779820555	1
0	2942	1007.026608133351	0
0	2965	1012.0859788492	1
0	2966	1014.785742025652	0
0	2974	1019.078967202191	1
0	2976	1021.844180865519	2
0	2977	1023.323802701211	1
0	2984	1023.517535313757	0
0	2993	1025.237313622215	1
0	2994	1025.581016660023	0
0	3006	1029.349088922478	1
0	3008	1032.60696329376	2
0	3009	1033.375462544302	1
0	3015	1033.867606968386	2
0	3021	1036.38197626893	1
0	3028	1038.519475364743	2
0	3030	1040.943925319176	3
0	3032	1042.489908964068	4
0	3033	1043.350405076784	3
0	3039	1043.796492656195	2
0	3044	1044.006113164469	1
0	3052	1048.013645411275	2
0	3053	1048.15042119734	1
0	3059	1048.831330201873	2
0	3060	1049.138038683727	1
0	3066	1049.549705984639	2
0	3070	1053.598206511151	3
0	3071	1053.871073674385	2
0	3076	1055.686828410859	1
0	3081	1057.781262399026	0
0	3092	1058.982518572909	1
0	3094	1062.175399180834	2
0	3096	1062.65814037955	3
0	3097	1062.953442894242	2
0	3104	1064.651116002059	3
0	3105	1065.031074953336	2
0	3111	1066.955713032188	1
0	3118	1069.361991447418	2
0	3120	1071.38215648153	3
0	3121	1072.05677495658	2
0	3127	1072.895913964234	3
0	3128	1073.414858769009	2
0	3134	1073.912403855858	1
0	3139	1074.094686565796	0
0	3166	1077.925968411378	1
0	3171	1080.238789407671	0
0	3186	1084.404571354015	1
0	3187	1085.038361989369	0
0	3193	1085.211928151152	1
0	3196	1089.23856493526	0
0	3202	1089.949459200217	1
0	3203	1092.297262414961	0
0	3216	1094.665223911284	1
0	3219	1095.837351032014	0
0	3229	1097.702194805681	1
0	3230	1103.175639085248	0
0	3236	1104.320475581939	1
0	3238	1104.446413835911	2
0	3240	1105.417947138551	3
0	3242	1107.313899807701	4
0	3244	1112.148043693935	5
0	3248	1114.199739989025	6
0	3249	1117.345381650016	5
0	3254	1120.460072047298	4
0	3259	1122.63389840684	3
0	3263	1122.928215893445	4
0	3265	1123.395442435887	5
0	3269	1124.607354685837	6
0	3271	1125.470585156071	5
0	3277	1125.789519349387	6
0	3278	1127.539644087938	5
0	3282	1127.617183856349	6
0	3284	1127.818455045424	7
0	3286	1128.092266032733	8
0	3291	1130.297584441489	9
0	3292	1130.727951862389	8
0	3299	1132.176092320603	9
0	3300	1132.329202930665	8
0	3307	1132.927087055132	9
0	3310	1134.067530811156	10
0	3311	1134.429099337044	9
0	3318	1136.245366363311	10
0	3320	1137.242241078013	11
0	3322	1139.772133903769	12
0	3324	1140.918908347005	13
0	3326	1141.616637751293	14
0	3327	1144.92699364329	13
0	3333	1145.769649032868	14
0	3334	1145.856162322074	13
0	3342	1148.492603603794	14
0	3345	1149.435119506009	13
0	3350	1149.875000752103	12
0	3356	1152.128240130981	13
0	3360	1154.035691950084	14
0	3361	1154.566223489662	13
0	3367	1155.055518898901	14
0	3368	1155.51519397319	13
0	3376	1156.59803773418	14
0	3377	1156.763357637267	13
0	3383	1158.306294137792	12
0	3390	1161.227252971082	11
0	3399	1162.865446471396	12
0	3401	1167.342361449645	11
0	3407	1167.446685067268	12
0	3409	1168.617187130657	13
0	3412	1171.817962632895	12
0	3417	1172.594727317485	11
0	3422	1173.349242906256	10
0	3429	1179.257509740115	9
0	3434	1181.67585230325	8
0	3441	1184.492270786589	9
0	3443	1184.59145408233	10
0	3444	1184.60939902448	9
0	3453	1189.548037192782	10
0	3454	1190.503271623663	9
0	3461	1194.452543243449	8
0	3466	1194.505417839929	7
0	3472	1194.773125512761	8
0	3473	1195.704586848966	7
0	3477	1195.924699551497	8
0	3481	1199.16113305684	9
0	3483	1201.323381794117	8
0	3491	1201.623716927652	9
0	3493	1201.873237606043	8
0	3499	1202.267711996739	7
0	3505	1202.624030200728	8
0	3506	1202.668165570973	7
0	3511	1203.540646449589	6
0	3518	1205.358960920973	7
0	3519	1205.917448304601	6
0	3526	1207.530783951023	7
0	3528	1208.273388481019	8
0	3534	1210.790812759408	7
0	3539	1211.35672528333	6
0	3546	1211.603902867742	7
0	3549	1213.516598898884	6
0	3557	1215.557500841617	7
0	3558	1215.670139627901	6
0	3564	1216.528756367578	5
0	3571	1217.076749647687	6
0	3576	1221.599010967438	7
0	3578	1223.386961823491	8
0	3580	1223.399664653364	9
0	3581	1223.982043679698	8
0	3587	1229.172647204925	7
0	3592	1230.630266687029	6
0	3598	1233.35817781168	7
0	3599	1233.580674785957	6
0	3604	1233.649015641406	5
0	3613	1237.706765685228	6
0	3615	1237.730108952396	7
0	3618	1240.90403792694	6
0	3624	1243.097928231035	7
0	3626	1243.179231949505	8
0	3629	1245.892242076676	9
0	3630	1248.685175975459	8
0	3636	1250.876296595929	7
0	3641	1251.021870046968	6
0	3648	1253.16995677719	5
0	3653	1255.946487732852	4
0	3658	1256.144680928569	3
0	3663	1256.319809931429	2
0	3671	1259.704098883723	3
0	3678	1263.259825502845	4
0	3685	1264.60146441061	3
0	3693	1268.218463420279	2
0	3699	1268.768081240175	1
0	3708	1272.342691362847	2
0	3709	1272.567512848374	1
0	3714	1272.773425590707	0
0	3728	1275.907368349091	1
0	3732	1276.483544860662	0
0	3738	1276.485772819115	1
0	3740	1277.533881326805	0
0	3757	1282.564631642369	1
0	3759	1283.26150469918	0
0	3773	1285.003889417269	1
0	3774	1289.002933337966	0
0	3782	1291.132636297714	1
0	3784	1291.283650889102	2
0	3786	1291.675790661056	3
0	3787	1292.878746729638	2
0	3792	1293.207705547348	1
0	3800	1296.51672443071	2
0	3801	1296.591770500375	1
0	3808	1298.414370512079	2
0	3809	1298.953933935646	1
0	3815	1299.208466291772	0
0	3827	1304.174631881671	1
0	3829	1304.734744440662	2
0	3830	1305.736016298905	1
0	3836	1306.21080493419	0
0	3858	1310.410427220785	1
0	3859	1310.863104763685	0
0	3870	1311.198003776767	1
0	3872	1311.482480505023	2
0	3878	1314.439834703985	1
0	3887	1317.394304575294	2
0	3892	1322.770278841857	3
0	3895	1326.306188048563	2
0	3903	1333.725165396869	1
0	3909	1334.263227537667	0
0	3921	1337.303463266345	1
0	3923	1339.135126708088	2
0	3924	1339.516917331043	1
0	3930	1343.006888363564	0
0	3942	1345.049177355874	1
0	3946	1347.445215063706	2
0	3947	1348.445848321462	1
0	3952	1348.607443804963	0
0	3963	1349.598800648509	1
0	3964	1349.765376405093	0
0	3975	1353.978561831169	1
0	3976	1355.577482227868	0
0	3989	1363.45552585918	1
0	3991	1363.836455418119	2
0	3993	1366.417096515783	3
0	3995	1367.268222726261	4
0	3997	1368.388024575523	5
0	3998	1368.436326418134	4
0	4003	1370.528524467509	3
0	4008	1371.430731788647	2
0	4018	1377.817128726928	1
0	4024	1379.69753610615	0
0	4031	1382.714186329892	1
0	4033	1383.981744717755	2
0	4034	1384.166124191525	1
0	4042	1386.130895367906	0
0	4067	1394.054059450271	1
0	4069	1395.296720695015	0
0	4080	1395.939424845712	1
0	4089	1398.72701515333	2
0	4090	1399.122058953515	1
0	4098	1401.176597855344	0
0	4109	1402.522240627912	1
0	4112	1403.319345375986	0
0	4149	1415.684505756784	1
0	4152	1417.436525131688	0
0	4175	1423.657489826045	1
0	4178	1424.875963153292	2
0	4180	1425.551116356081	1
0	4186	1426.151129813791	0
0	4195	1427.703649144078	1
0	4201	1430.211665085964	0
0	4208	1431.66873762402	1
0	4209	1431.790417599209	0
0	4227	1436.258229621866	1
0	4228	1437.185128635203	0
0	4244	1441.181794512573	1
0	4246	1441.349209311744	2
0	4250	1442.408201177572	3
0	4252	1442.803565221	4
0	4254	1444.626972163107	5
0	4260	1449.881015355061	6
0	4264	1451.063609054208	7
0	4265	1451.261893468243	6
0	4270	1452.394605919131	5
0	4275	1453.495242288682	4
0	4280	1454.126723420286	3
0	4284	1454.91751445138	4
0	4294	1458.556362628603	3
0	4299	1458.769381509122	2
0	4306	1462.024370638795	1
0	4311	1462.190431294063	0
0	4318	1465.352760968279	1
0	4323	1469.249730162575	0
0	4330	1471.22972315681	1
0	4331	1473.29242515939	0
0	4337	1474.267194433311	1
0	4340	1474.495161582502	2
0	4342	1474.549595029166	3
0	4344	1476.670585886609	4
0	4345	1476.952168945347	3
0	4353	1477.500396289606	4
0	4355	1478.195354809014	5
0	4356	1478.202528441426	4
0	4363	1478.9779848688	3
0	4368	1479.824822370333	2
0	4374	1480.52816756982	3
0	4375	1480.583247317005	2
0	4382	1482.887403955975	1
0	4396	1490.920645664908	0
0	4428	1502.929306548072	1
0	4429	1505.098516893362	0
0	4435	1505.825030842729	1
0	4438	1506.968074002539	0
0	4450	1508.664360343237	1
0	4452	1509.033806945185	2
0	4456	1512.119488677685	3
0	4457	1513.310502947077	2
0	4463	1514.746898862535	3
0	4464	1516.315249095368	2
0	4470	1516.39151418613	3
0	4472	1516.921072355812	4
0	4473	1517.116431135588	3
0	4481	1518.670167517575	2
0	4487	1519.939097528494	1
0	4492	1522.025430878145	0
0	4501	1522.322385137938	1
0	4504	1524.079424372177	0
0	4508	1527.708382802152	1
0	4513	1530.889055724826	0
0	4517	1532.313567599192	1
0	4521	1533.014839430504	0
0	4530	1533.493934317626	1
0	4533	1536.376449680271	2
0	4537	1537.470074392489	3
0	4541	1538.399506987831	4
0	4542	1539.579408164506	3
0	4548	1540.37559430083	2
0	4554	1540.509272508514	3
0	4558	1541.346414376259	2
0	4563	1541.373690659215	1
0	4569	1542.506661223603	0
0	4575	1542.550345454561	1
0	4580	1544.267828778561	0
0	4593	1545.306453282344	1
0	4595	1545.76432409955	2
0	4596	1546.732014236336	1
0	4603	1549.692797575725	2
0	4611	1552.262498859613	1
0	4617	1552.357230367874	2
0	4618	1552.40956475053	1
0	4623	1553.086150251332	0
0	4629	1555.403494445	1
0	4631	1555.700439491024	2
0	4636	1558.470664973809	1
0	4644	1559.706417392425	0
0	4650	1560.799916006023	1
0	4652	1561.828219028768	2
0	4656	1562.486951819078	3
0	4657	1562.862966405558	2
0	4663	1562.881733761636	3
0	4670	1569.635003008688	4
0	4672	1569.75118888865	5
0	4673	1573.79182399872	4
0	4678	1576.021893192212	3
0	4683	1579.368434433776	2
0	4688	1579.724270310904	1
0	4697	1582.850611412718	2
0	4698	1584.594788356377	1
0	4709	1587.119946942927	2
0	4711	1588.644605928255	3
0	4714	1590.573284850366	2
0	4722	1593.131428548933	1
0	4727	1593.311688743131	0
0	4752	1598.21162845548	1
0	4758	1602.089039884748	2
0	4759	1602.580788668855	1
0	4764	1603.013833824445	0
0	4789	1605.468315855904	1
0	4792	1610.647080171959	0
0	4803	1613.349930209828	1
0	4806	1613.931061100985	0
0	4827	1620.178293456571	1
0	4828	1620.343668862904	0
0	4844	1622.736760039431	1
0	4851	1626.921435091845	0
0	4872	1639.560954916345	1
0	4881	1643.330893083329	0
0	4887	1644.425119100123	1
0	4889	1645.03223617583	0
0	4915	1648.27365600074	1
0	4917	1649.672300471292	0
0	4939	1656.71454255922	1
0	4946	1659.133358995691	0
0	4962	1664.944932140672	1
0	4963	1665.146289933673	0
0	4970	1665.780471494078	1
0	4971	1666.373547543615	0
0	4989	1671.530965196479	1
0	4990	1673.04821388593	0
0	5025	1682.757707299189	1
0	5028	1686.072259153738	0
0	5034	1687.37070881823	1
0	5037	1690.844081942586	0
0	5043	1691.338986220083	1
0	5044	1691.769989627742	0
0	5073	1699.504838613888	1
0	5075	1700.15959116978	2
0	5076	1703.952695356149	1
0	5082	1704.696951114811	0
0	5100	1708.180690502322	1
0	5103	1709.459511291228	0
0	5117	1713.286783148223	1
0	5118	1713.847048670477	0
0	5149	1721.911334251492	1
0	5151	1723.606937038379	2
0	5152	1726.693565299471	1
0	5157	1727.189161196794	0
0	5177	1732.143981702404	1
0	5179	1734.390438033598	2
0	5183	1735.657730923024	3
0	5189	1738.63826329342	4
0	5190	1740.789791141978	3
0	5195	1741.178351057814	2
0	5202	1744.162808368805	1
0	5209	1745.08809241722	2
0	5210	1746.481414276219	1
0	5215	1746.589751174632	0
0	5242	1755.21532683651	1
0	5246	1755.85044989968	2
0	5249	1757.03846454438	1
0	5254	1757.876611542699	0
0	5272	1761.028869075677	1
0	5273	1761.678867502528	0
0	5280	1762.903810664719	1
0	5281	1763.237380932077	0
0	5293	1765.314468732635	1
0	5294	1766.914449388102	0
0	5313	1771.940548408213	1
0	5318	1772.928137729558	2
0	5319	1774.927439214015	1
0	5325	1776.226087517454	0
0	5336	1781.607602627612	1
0	5337	1781.771123807534	0
0	5346	1784.091590558385	1
0	5350	1786.072036147339	2
0	5351	1787.210869506047	1
0	5357	1788.612223017638	2
0	5360	1789.199189581457	1
0	5368	1792.319255240391	2
0	5372	1796.385276688511	1
0	5379	1798.49923425193	2
0	5381	1800.93593826041	3
0	5382	1801.003109092496	2
0	5388	1802.325823708871	3
0	5392	1803.816497820298	4
0	5394	1804.259020448846	5
0	5399	1816.294148645305	4
0	5404	1817.327790067562	3
0	5411	1818.982040496758	2
0	5417	1819.640863115572	3
0	5419	1821.049310904859	2
0	5430	1826.932658343929	1
0	5436	1830.793894809925	2
0	5438	1832.555035757447	1
0	5444	1834.085432460918	0
0	5471	1836.048391329326	1
0	5480	1840.004362619316	2
0	5481	1840.200690330201	1
0	5489	1842.082706836908	2
0	5490	1843.669636050825	1
0	5495	1844.14711519235	0
0	5513	1850.237412428498	1
0	5514	1850.921323538791	0
0	5522	1853.683160643509	1
0	5524	1854.769251913301	2
0	5529	1856.005592238072	3
0	5530	1859.616423047177	2
0	5535	1860.593904127614	1
0	5545	1862.188903397079	0
0	5551	1862.317587476012	1
0	5555	1865.365912821121	2
0	5556	1865.808237632528	1
0	5561	1866.362385757815	0
0	5580	1872.611785898997	1
0	5582	1874.056950542385	0
0	5595	1877.092504497147	1
0	5596	1878.667295701813	0
0	5602	1878.842959580007	1
0	5605	1879.363961721426	0
0	5611	1879.777106588598	1
0	5613	1881.597227277544	0
0	5649	1891.922003888151	1
0	5652	1894.559181140947	0
0	5664	1898.333768095473	1
0	5668	1900.026140124406	2
0	5672	1902.776231160361	3
0	5677	1904.549643316073	2
0	5684	1906.839098118556	3
0	5689	1915.985277873468	2
0	5699	1918.766793274332	1
0	5705	1920.82978251545	0
0	5717	1923.252941205889	1
0	5719	1923.41696171894	2
0	5723	1924.123337810622	3
0	5724	1925.380947501129	2
0	5731	1927.573167100617	3
0	5735	1927.644319161559	4
0	5736	1928.554799874086	3
0	5741	1929.706304493988	2
0	5746	1930.083422844522	1
0	5758	1931.203101814129	0
0	5772	1936.957889891619	1
0	5775	1937.600548037808	2
0	5778	1939.224706916706	1
0	5785	1941.685344213195	0
0	5794	1946.438452467379	1
0	5795	1946.60897875955	0
0	5815	1948.423649506429	1
0	5818	1950.924392860547	0
0	5826	1953.009074389577	1
0	5827	1953.530873269271	0
0	5853	1964.068011446019	1
0	5857	1966.635776525754	2
0	5858	1967.29895278648	1
0	5866	1968.740191218602	0
0	5879	1970.505018029229	1
0	5881	1970.87486921897	2
0	5886	1973.972844936895	1
0	5891	1974.992741250155	0
0	5898	1976.260061170483	1
0	5902	1977.677415868521	0
0	5925	1982.892375243272	1
0	5926	1983.817578559094	0
0	5942	1987.056918642144	1
0	5948	1989.481740526844	0
0	5965	1991.976651182989	1
0	5966	1992.278375703674	0
0	5984	1997.621656829171	1
0	5986	1997.626922425266	2
0	5990	1999.346911164507	3
0	5992	2002.035402635184	2
0	5997	2005.173949655443	1
0	6002	2005.223845482164	0
0	6006	2005.539328534386	1
0	6017	2010.789616407878	2
0	6018	2012.601335251489	1
0	6024	2013.511345613266	0
0	6044	2018.105665748742	1
0	6045	2018.13293884143	0
0	6054	2019.189161207172	1
0	6060	2020.700700774936	2
0	6066	2023.978893931585	1
0	6072	2025.340892183622	0
0	6085	2027.842109383607	1
0	6088	2031.395322741915	2
0	6089	2032.401299097049	1
0	6099	2036.375822171972	0
0	6128	2039.225227924026	1
0	6133	2041.971728015571	0
0	6139	2042.187983417965	1
0	6141	2042.655990785805	2
0	6144	2044.576975709454	3
0	6147	2044.986813817477	2
0	6155	2047.628166485748	3
0	6156	2047.69029362608	2
0	6161	2048.69622090492	1
0	6168	2050.452041427981	0
0	6184	2054.270129912724	1
0	6185	2055.660851512261	0
0	6192	2057.40353390425	1
0	6194	2059.287677883135	2
0	6195	2059.32357325534	1
0	6200	2059.332657323747	0
0	6211	2059.394317238275	1
0	6213	2060.920574197171	2
0	6215	2061.007330697525	1
0	6221	2061.843754047116	0
0	6227	2062.662484633508	1
0	6230	2064.727985690391	0
0	6236	2066.37114009204	1
0	6238	2066.455689492248	0
0	6254	2072.301446614868	1
0	6255	2072.982779509596	0
0	6279	2083.757642283956	1
0	6283	2086.058067281593	2
0	6286	2087.852393614544	1
0	6292	2088.794617182132	0
0	6307	2092.747635910476	1
0	6311	2094.764061964728	2
0	6312	2095.677841163526	1
0	6317	2095.814733566031	0
0	6328	2095.900845824202	1
0	6331	2096.193061442914	2
0	6332	2096.81355793218	1
0	6338	2097.043616940779	2
0	6339	2098.487979508146	1
0	6349	2100.281884837716	0
0	6355	2100.294782276069	1
0	6357	2102.69669660612	0
0	6365	2105.862688740044	1
0	6368	2106.498251826956	2
0	6370	2106.711101765822	3
0	6372	2106.869493886733	4
0	6374	2107.3001745945	5
0	6375	2108.989840483909	4
0	6387	2113.320543039244	3
0	6393	2113.760636467341	2
0	6401	2115.614509437719	1
0	6406	2116.365141634172	0
0	6436	2126.937942726891	1
0	6437	2128.45519897564	0
0	6448	2132.054225989494	1
0	6450	2134.024739635753	0
0	6462	2135.847158932234	1
0	6466	2137.599436883796	2
0	6467	2139.690708958191	1
0	6477	2148.430742459804	0
0	6496	2153.51495742794	1
0	6497	2153.807661084551	0
0	6503	2155.969745283143	1
0	6507	2160.611625774356	2
0	6508	2162.008532342296	1
0	6514	2163.202517838748	2
0	6518	2166.904329488392	1
0	6523	2167.526682316277	0
0	6554	2173.738088085354	1
0	6559	2178.320395790988	0
0	6585	2187.601519351877	1
0	6588	2192.797337956784	0
0	6597	2194.328866290935	1
0	6600	2197.969980758738	0
0	6623	2203.803271147418	1
0	6627	2204.488175228626	2
0	6630	2208.253452219342	1
0	6637	2208.645193701143	0
0	6652	2213.613960399503	1
0	6653	2215.544091201366	0
0	6659	2217.310725975644	1
0	6660	2217.40564320477	0
0	6670	2221.355588717704	1
0	6673	2222.034174234283	0
0	6705	2228.904820352334	1
0	6706	2230.545482199573	0
0	6724	2232.710451071996	1
0	6725	2235.651570208348	0
0	6739	2240.016301097369	1
0	6749	2245.828817442811	2
0	6751	2246.892367855677	3
0	6752	2247.092239649096	2
0	6758	2249.581221582714	1
0	6766	2250.709575256029	2
0	6768	2250.980488170448	3
0	6769	2251.518588508022	2
0	6775	2252.176942034175	1
0	6780	2253.475155130213	0
0	6787	2256.126147495246	1
0	6789	2256.726480014386	2
0	6794	2267.850008525611	3
0	6796	2268.312508295234	4
0	6799	2273.991253828896	3
0	6805	2276.747388834721	2
0	6813	2277.776565479604	1
0	6818	2278.661563913093	0
0	6857	2288.093479735166	1
0	6858	2289.496288277305	0
0	6864	2291.057071778537	1
0	6866	2294.133330683343	0
0	6875	2294.9353504668	1
0	6879	2297.35480186578	2
0	6881	2298.291157857927	3
0	6887	2301.197031566256	2
0	6892	2301.411570250498	1
0	6899	2303.212298647253	0
0	6910	2304.829895376878	1
0	6913	2305.188288874432	2
0	6915	2305.858874040259	3
0	6917	2306.11344967032	4
0	6918	2307.953097499534	3
0	6925	2308.42420371881	4
0	6926	2309.13163830659	3
0	6931	2309.257427452535	2
0	6935	2309.370377238377	3
0	6939	2309.627221007262	4
0	6940	2312.1144727114	3
0	6947	2315.841442220611	4
0	6952	2321.954547547937	3
0	6957	2322.200900787094	2
0	6961	2322.233318270435	3
0	6964	2326.427582523025	2
0	6970	2327.887478801481	3
0	6972	2327.922288846403	4
0	6974	2328.500878896044	3
0	6979	2329.353918011927	2
0	6985	2330.301643238615	3
0	6986	2330.403022133928	2
0	6993	2333.976249134091	1
0	6999	2336.915855534074	2
0	7001	2337.414633276167	3
0	7004	2339.057122796256	2
0	7008	2341.251892199516	3
0	7013	2342.346856556206	2
0	7018	2343.246996223134	1
0	7023	2346.390170330525	0
0	7031	2350.176363507436	1
0	7036	2352.345136927684	2
0	7037	2353.144457477001	1
0	7043	2354.331168112762	2
0	7048	2358.414154317357	1
0	7056	2358.477738719075	2
0	7060	2360.432901664758	1
0	7066	2361.76313717931	2
0	7068	2363.163876659474	3
0	7069	2363.351674862667	2
0	7077	2367.822565964086	1
0	7083	2369.179541996602	0
0	7114	2374.362238096413	1
0	7120	2376.384197871844	2
0	7121	2376.703483065444	1
0	7132	2379.808920197617	0
0	7140	2381.73728082314	1
0	7141	2382.61761984669	0
0	7149	2383.326073605183	1
0	7151	2385.59663096158	2
0	7153	2386.370180209763	3
0	7156	2389.593765868303	2
0	7167	2393.338362764376	3
0	7168	2393.355732212866	2
0	7176	2398.923582577834	1
0	7183	2399.799087160497	2
0	7186	2400.80867912227	1
0	7191	2401.497508727506	0
0	7197	2401.575407227207	1
0	7201	2406.529726382336	0
0	7213	2408.01777765314	1
0	7215	2408.339068686535	2
0	7217	2412.641705531802	1
0	7223	2412.923950332238	2
0	7225	2413.790908181949	3
0	7227	2413.853827528557	4
0	7228	2414.507674540214	3
0	7236	2415.69368598488	4
0	7237	2417.843671842901	3
0	7244	2419.443950619782	2
0	7249	2419.875027517804	1
0	7259	2423.327326283983	2
0	7265	2428.17172198315	1
0	7271	2428.260670391203	2
0	7273	2429.20579494903	1
0	7279	2431.200253528994	0
0	7318	2444.647184065883	1
0	7319	2446.324088070494	0
0	7333	2449.662801324477	1
0	7336	2450.56197879902	0
0	7348	2451.983034580911	1
0	7353	2456.01915449387	0
0	7364	2457.083262102871	1
0	7366	2457.566268164445	2
0	7368	2458.04023913278	3
0	7377	2461.353295286081	2
0	7382	2463.06593836209	1
0	7392	2469.694223224065	0
0	7403	2472.78436067536	1
0	7405	2473.267483169956	2
0	7407	2474.242733620046	3
0	7411	2477.457059313055	2
0	7418	2478.14141190851	3
0	7420	2479.984136030138	2
0	7426	2480.216939477745	3
0	7428	2481.213792260866	2
0	7434	2481.869152543861	3
0	7436	2482.833743666691	2
0	7441	2482.930434767167	1
0	7446	2483.999717543562	0
0	7452	2484.627487567027	1
0	7455	2486.456062865087	2
0	7457	2486.979376187856	3
0	7459	2487.668235242535	4
0	7460	2487.709707064736	3
0	7466	2488.264517659223	2
0	7473	2489.235929706896	1
0	7479	2491.655518120248	0
0	7485	2491.875762091522	1
0	7491	2494.694347706552	0
0	7511	2502.136990032494	1
0	7512	2502.465882658032	0
0	7531	2513.302416140152	1
0	7532	2513.390606497137	0
0	7538	2513.652231121545	1
0	7540	2513.901591554323	2
0	7544	2515.803709704119	3
0	7545	2517.611112325173	2
0	7551	2517.998153490246	1
0	7558	2518.634726201949	2
0	7559	2519.868863173725	1
0	7565	2522.29232860913	0
0	7571	2522.537944206358	1
0	7573	2522.95333866021	2
0	7574	2523.250104072087	1
0	7579	2523.39051062596	0
0	7592	2524.830888716749	1
0	7593	2524.865706547592	0
0	7623	2529.986762358147	1
0	7627	2530.749984506598	2
0	7628	2531.892691978923	1
0	7637	2532.84059605806	2
0	7639	2534.428032974676	3
0	7641	2534.68008102804	4
0	7642	2536.153470926896	3
0	7650	2538.120644309794	2
0	7656	2539.334146177358	3
0	7658	2540.370110289574	4
0	7660	2540.92604745863	5
0	7664	2542.138753561419	4
0	7670	2543.503316681677	5
0	7672	2543.915046037715	4
0	7677	2545.565553595136	3
0	7683	2545.733629962145	4
0	7685	2545.802701468143	5
0	7686	2545.844751462825	4
0	7695	2553.183350814825	5
0	7696	2553.945560361039	4
0	7703	2557.098503368495	3
0	7709	2561.623524102903	2
0	7718	2563.34502751535	3
0	7720	2564.551688136891	4
0	7721	2566.316502352123	3
0	7727	2568.503914445462	2
0	7733	2570.675364810452	1
0	7740	2573.188796188513	2
0	7743	2574.999813360729	1
0	7751	2576.274381606442	0
0	7762	2577.922000093508	1
0	7764	2578.24881841208	2
0	7767	2580.11744696001	1
0	7773	2582.331151916097	0
0	7787	2583.265214251576	1
0	7792	2589.720239738405	0
0	7812	2596.222258347307	1
0	7818	2599.025371666116	2
0	7819	2601.100296969678	1
0	7827	2601.693561121806	2
0	7830	2602.611747209856	3
0	7832	2602.729632636416	4
0	7833	2602.92816851311	3
0	7839	2605.717112706459	4
0	7840	2606.123770744259	3
0	7845	2606.61697527586	2
0	7852	2609.554319723621	1
0	7856	2609.581578322664	2
0	7859	2611.857828259758	1
0	7864	2612.833578855022	0
0	7884	2624.240057431671	1
0	7886	2625.894344801761	2
0	7887	2626.213502863398	1
0	7896	2629.39779299208	2
0	7898	2630.648812496893	3
0	7899	2631.266792074678	2
0	7910	2632.815715660859	3
0	7911	2633.526514705693	2
0	7916	2633.735888484467	1
0	7923	2634.118909279238	2
0	7932	2638.192602355644	3
0	7934	2639.079826574265	4
0	7937	2639.590299435663	5
0	7938	2639.622091858977	4
0	7944	2639.732120355263	5
0	7947	2640.897051496733	6
0	7949	2641.472760734563	5
0	7955	2643.140560423854	4
0	7960	2643.325293117707	3
0	7970	2650.793912657321	2
0	7977	2651.362114536708	3
0	7978	2652.975503962061	2
0	7984	2653.698131292839	1
0	7989	2655.46813912179	0
0	8007	2659.142043242353	1
0	8009	2659.866485055031	2
0	8012	2664.934702805108	1
0	8018	2665.779918487047	0
0	8045	2670.738065388562	1
0	8046	2671.022660954857	0
0	8053	2673.625179514127	1
0	8055	2676.296169560309	0
0	8070	2678.840770136	1
0	8074	2680.093936753463	2
0	8076	2680.630835199914	3
0	8084	2684.564829806056	4
0	8086	2684.935725004904	5
0	8087	2685.580373157811	4
0	8093	2685.589719776782	5
0	8095	2686.381021579924	6
0	8097	2687.096466515916	5
0	8105	2687.610754725603	6
0	8106	2687.938035584726	5
0	8111	2689.042690052436	4
0	8117	2693.415586290298	3
0	8123	2693.957264916106	2
0	8130	2695.820450404131	3
0	8131	2695.842434034373	2
0	8137	2696.111735008389	1
0	8145	2700.543106514843	2
0	8149	2704.111807191451	1
0	8155	2704.739382833395	2
0	8157	2705.109163865271	3
0	8159	2708.877888082543	2
0	8167	2710.079117798021	3
0	8168	2710.867316215085	2
0	8173	2710.966248290101	1
0	8182	2713.226868361026	0
0	8188	2713.970713220194	1
0	8189	2714.6256735684	0
0	8195	2714.940715438769	1
0	8198	2715.003751143168	0
0	8221	2720.612425294244	1
0	8223	2720.733456118937	2
0	8225	2721.090420471887	3
0	8227	2721.797470505784	4
0	8229	2722.500113604257	5
0	8230	2723.604040926011	4
0	8237	2724.417182765261	5
0	8239	2727.00655313919	4
0	8249	2729.583182339263	3
0	8256	2730.09133099657	4
0	8259	2731.965732145075	3
0	8265	2732.779517597296	2
0	8270	2733.013245657308	1
0	8277	2733.885818702465	0
0	8285	2734.526501213979	1
0	8286	2735.848939995223	0
0	8308	2739.711698991677	1
0	8310	2740.980874682169	2
0	8311	2741.518255435185	1
0	8317	2741.868770255868	2
0	8320	2743.240540979445	3
0	8321	2744.476555104858	2
0	8327	2745.979979946122	3
0	8329	2746.275373101496	4
0	8332	2746.960593473989	5
0	8338	2748.509402873208	6
0	8340	2749.255596482228	7
0	8343	2750.974008383239	6
0	8349	2751.666796100908	5
0	8356	2754.786487541407	6
0	8357	2755.012005588413	5
0	8362	2756.169004857749	4
0	8371	2759.24993676905	3
0	8377	2759.618908774568	4
0	8378	2762.285413383765	3
0	8383	2764.225531220815	2
0	8389	2765.37008354407	1
0	8394	2766.176058516471	0
0	8403	2769.288470729543	1
0	8409	2772.283986387894	2
0	8414	2773.142178903597	1
0	8424	2779.146889058544	0
0	8430	2779.317077805211	1
0	8434	2782.106443417187	0
0	8441	2784.11132247545	1
0	8446	2784.790645441272	0
0	8452	2788.486252289746	1
0	8456	2791.774268790749	2
0	8457	2792.834169721067	1
0	8465	2794.858659646875	0
0	8503	2805.495425685306	1
0	8505	2808.503597441652	2
0	8506	2810.778109936804	1
0	8511	2810.908270323466	0
0	8522	2813.984021506538	1
0	8524	2814.904362330059	2
0	8526	2814.991010069784	3
0	8529	2817.603664622643	2
0	8539	2820.459971239763	1
0	8548	2822.21964394087	2
0	8551	2823.614395361042	1
0	8559	2829.480747888679	2
0	8561	2829.515478955623	3
0	8563	2829.840110718938	4
0	8564	2830.137675397628	3
0	8568	2830.652502730503	4
0	8570	2830.910171615983	5
0	8580	2835.680009022595	4
0	8588	2837.468887610811	5
0	8589	2838.113543976725	4
0	8595	2839.63084896797	3
0	8603	2840.24494803839	4
0	8605	2840.304007013697	5
0	8607	2841.782234648874	6
0	8608	2843.386153052874	5
0	8613	2843.392142027492	4
0	8619	2845.983905984301	5
0	8621	2846.049090796191	6
0	8623	2847.013121754419	7
0	8624	2850.419452726481	6
0	8633	2855.8414849221	7
0	8635	2856.421364192336	8
0	8636	2857.115818987129	7
0	8642	2858.195330737734	8
0	8644	2858.713973432456	9
0	8645	2859.13729388616	8
0	8650	2859.717238649719	7
0	8657	2861.175981575623	6
0	8663	2862.555382962032	7
0	8666	2865.003961092387	8
0	8668	2865.201802277014	9
0	8670	2865.688342810793	10
0	8672	2868.392865581796	11
0	8673	2868.940839667506	10
0	8681	2875.594931233004	9
0	8686	2875.913136205718	8
0	8702	2884.422103893319	9
0	8703	2885.155918655329	8
0	8708	2885.5270264497	7
0	8713	2886.711505309232	6
0	8725	2890.195745585444	7
0	8727	2890.591917109766	6
0	8732	2890.740154706238	5
0	8737	2891.082460527606	4
0	8743	2892.751154377309	3
0	8748	2892.838014607821	2
0	8760	2899.322884926023	1
0	8766	2900.543862773296	2
0	8768	2901.546328648058	3
0	8771	2903.35277854675	2
0	8776	2906.237600065289	1
0	8784	2906.973993828544	0
0	8812	2913.884848400142	1
0	8813	2913.933413819743	0
0	8824	2916.344395976441	1
0	8828	2916.746132332672	0
0	8839	2920.725330223889	1
0	8841	2921.028526673672	2
0	8843	2925.101937302817	1
0	8850	2929.080505187753	0
0	8856	2930.106637125322	1
0	8857	2930.334314303901	0
0	8878	2938.634447144388	1
0	8881	2939.578866758289	0
0	8887	2939.698606502028	1
0	8890	2942.960104374188	2
0	8891	2944.079458253337	1
0	8896	2944.413932809433	0
0	8905	2947.67923345408	1
0	8907	2949.272504838082	2
0	8908	2950.107536696278	1
0	8915	2950.756022730929	0
0	8931	2952.522777188684	1
0	8934	2955.888531988578	0
0	8941	2957.32922284875	1
0	8943	2960.124505459534	2
0	8944	2960.77518554843	1
0	8951	2963.028744061731	2
0	8952	2963.265221440713	1
0	8958	2963.374470110849	2
0	8960	2963.95398336065	1
0	8969	2965.067465517787	2
0	8970	2965.274155800024	1
0	8978	2967.609576274533	0
0	9000	2974.515189680248	1
0	9002	2975.055430379087	2
0	9004	2976.116055045775	3
0	9005	2976.846145269122	2
0	9011	2977.934063102232	1
0	9017	2977.993416000935	2
0	9018	2978.36829706487	1
0	9023	2978.379405592862	0
0	9031	2979.604183153767	1
0	9032	2979.746053036537	0
0	9039	2981.749315770923	1
0	9042	2982.426041837538	2
0	9044	2983.363731351289	3
0	9047	2987.307104014769	2
0	9053	2987.851671275743	3
0	9056	2990.005371291886	4
0	9057	2990.140290815868	3
0	9063	2990.44286345687	4
0	9066	2991.515237573051	5
0	9072	2995.307628506661	6
0	9073	2995.777752467284	5
0	9078	2995.982711919601	4
0	9084	3001.429616676757	3
0	9093	3004.738803579206	2
0	9108	3020.541318387295	3
0	9110	3022.618166005378	4
0	9111	3023.798367769486	3
0	9116	3023.827520636006	2
0	9121	3024.287881599814	1
0	9129	3026.253500794678	0
0	9135	3027.234753009496	1
0	9136	3027.310833777151	0
0	9145	3028.242532680339	1
0	9147	3029.311599707652	0
0	9154	3030.365403365235	1
0	9155	3030.530822033461	0
0	9167	3035.065305523691	1
0	9169	3037.946544790058	2
0	9170	3038.933947220413	1
0	9176	3041.100184010841	0
0	9195	3042.913491297507	1
0	9200	3045.663650344908	2
0	9201	3046.672064358229	1
0	9208	3049.42856779507	2
0	9212	3052.052777537995	3
0	9213	3052.805592499532	2
0	9222	3058.566752260704	1
0	9229	3060.014825702791	0
0	9244	3061.747098411433	1
0	9247	3064.591046826316	0
0	9256	3066.271946009417	1
0	9259	3067.616880773368	0
0	9265	3068.105190772551	1
0	9266	3068.219839139121	0
0	9270	3069.699486019163	1
0	9275	3077.210688783599	0
0	9279	3080.657587807741	1
0	9283	3081.989273029162	2
0	9284	3082.578926088319	1
0	9294	3089.303108524117	0
0	9306	3093.13280149661	1
0	9307	3093.195417396473	0
0	9336	3101.962084154716	1
0	9342	3103.568950389039	2
0	9345	3104.217163736377	1
0	9350	3104.567890133385	0
0	9363	3107.211337443451	1
0	9365	3108.627175364651	2
0	9367	3109.367329265	3
0	9369	3112.666212572489	4
0	9370	3112.72286214877	3
0	9376	3113.081815272627	2
0	9382	3113.68686702428	1
0	9390	3116.879921064349	0
0	9397	3119.700854116094	1
0	9401	3124.552805915139	2
0	9403	3124.964463067544	3
0	9405	3126.601358180059	4
0	9406	3126.746498278018	3
0	9415	3130.055576910488	4
0	9416	3130.339918834127	3
0	9421	3131.449703533078	2
0	9429	3134.200822271273	3
0	9433	3135.605852835323	4
0	9435	3135.820278696695	5
0	9437	3136.448301962152	6
0	9439	3136.532272785234	7
0	9443	3139.841593218133	8
0	9444	3139.943278502275	7
0	9452	3142.114407618731	6
0	9459	3143.681046370341	7
0	9461	3146.370756936523	8
0	9463	3146.851171632052	9
0	9464	3149.351588618918	8
0	9469	3150.679713179966	7
0	9474	3150.788033416801	6
0	9482	3151.548653129609	7
0	9485	3152.288529935229	6
0	9490	3152.49205549991	5
0	9495	3152.821502759675	4
0	9503	3155.93161532181	3
0	9510	3156.537168416238	4
0	9512	3156.892857530468	3
0	9518	3158.111582253602	2
0	9527	3159.384493264568	3
0	9528	3159.388296644533	2
0	9534	3159.700031636905	3
0	9536	3159.942611163502	4
0	9538	3161.615986639029	3
0	9543	3161.617481536344	2
0	9553	3165.651789563693	1
0	9558	3166.350636046951	0
0	9578	3170.290092211195	1
0	9580	3171.855699929132	2
0	9581	3171.897971996978	1
0	9587	3172.635565499965	0
0	9593	3173.378621881334	1
0	9598	3174.612399369893	2
0	9600	3175.574878461534	3
0	9602	3176.384195460173	4
0	9606	3178.75100550691	5
0	9608	3179.044647192427	6
0	9610	3179.714075973552	7
0	9615	3183.866539221395	6
0	9621	3185.319145179148	5
0	9626	3185.674855952153	4
0	9632	3186.400005842027	3
0	9643	3190.243616366376	2
0	9648	3190.986991106832	1
0	9653	3191.466411952795	0
0	9664	3192.999139586184	1
0	9666	3193.724113511935	2
0	9673	3195.869033997555	3
0	9675	3198.157554773175	4
0	9677	3198.409585796722	5
0	9679	3199.696212930114	6
0	9680	3201.416329560754	5
0	9685	3203.169542218755	4
0	9691	3203.667500938428	5
0	9692	3203.809643760268	4
0	9698	3204.464150291637	3
0	9706	3205.397734537831	4
0	9707	3206.464035742353	3
0	9712	3207.251044608052	2
0	9718	3208.810767784126	3
0	9722	3213.340442337529	2
0	9727	3216.651257626477	1
0	9733	3219.071646086183	0
0	9755	3223.838953449707	1
0	9757	3224.458758916616	2
0	9758	3225.093002424752	1
0	9766	3227.888369596415	0
0	9777	3229.756459830097	1
0	9780	3231.356789054225	0
0	9809	3238.028156693186	1
0	9816	3242.677404272655	2
0	9817	3243.252456977189	1
0	9824	3245.901194599245	2
0	9826	3247.691783025532	3
0	9827	3248.252095583026	2
0	9832	3249.588511503326	1
0	9840	3251.986940330705	0
0	9857	3254.906837643244	1
0	9858	3256.096040172667	0
0	9869	3259.38435272964	1
0	9876	3265.222659325231	0
0	9882	3265.963635963012	1
0	9886	3267.149967626956	0
0	9907	3271.126708478391	1
0	9908	3273.070911635807	0
0	9920	3275.912453099738	1
0	9922	3277.853683462213	2
0	9924	3278.706162993158	1
0	9929	3282.749445072596	0
0	9953	3286.301788463489	1
0	9954	3286.637401178151	0
0	9961	3288.950026148073	1
0	9964	3292.402795876741	2
0	9966	3293.306245051771	3
0	9967	3293.656162277669	2
0	9972	3294.055878888989	1
0	9978	3296.011571041119	0
0	9984	3296.546286325437	1
0	9987	3297.930630350479	0
0	10006	3300.216722852642	1
0	10008	3301.038511773693	2
0	10009	3302.937619393119	1
0	10014	3303.829846654458	0
0	10042	3312.878344084797	1
0	10043	3313.515925649077	0
0	10067	3318.518402803011	1
0	10072	3319.195353956284	0
0	10086	3325.092811825077	1
0	10093	3328.640172053418	0
0	10101	3331.845343318928	1
0	10102	3332.251579424885	0
0	10111	3332.412120953578	1
0	10115	3332.839490591142	2
0	10124	3335.451412464155	3
0	10125	3342.044583443174	2
0	10130	3344.07845188808	1
0	10135	3345.589157393805	0
0	10141	3346.019102825799	1
0	10142	3346.180229189467	0
0	10150	3348.105822822562	1
0	10153	3350.175570713421	2
0	10160	3352.422827037215	3
0	10161	3352.647566506813	2
0	10166	3352.749371144657	1
0	10174	3353.849685274258	2
0	10177	3355.871507671868	1
0	10182	3356.769896036763	0
0	10191	3361.014729066406	1
0	10197	3363.388331797526	2
0	10198	3364.490685731867	1
0	10204	3365.833511274142	0
0	10235	3375.148595987287	1
0	10236	3376.059335782293	0
0	10247	3376.812033710465	1
0	10253	3383.477798399324	0
0	10267	3388.005666712653	1
0	10271	3389.678676228691	2
0	10277	3393.303137240541	3
0	10278	3395.000657561141	2
0	10284	3395.039917166209	1
0	10290	3395.893699141743	2
0	10291	3396.013099471198	1
0	10296	3396.693677094124	0
0	10302	3396.814255833847	1
0	10305	3397.575368255168	0
0	10312	3400.093467002831	1
0	10314	3400.820186037047	2
0	10317	3402.334915951773	3
0	10322	3405.856552072324	4
0	10324	3407.968779453401	5
0	10326	3408.617891139272	6
0	10327	3409.111562258947	5
0	10332	3409.301837385033	4
0	10338	3409.406045667196	5
0	10340	3409.784787441683	6
0	10343	3412.536352130852	5
0	10351	3413.314344803072	6
0	10356	3418.319800730311	7
0	10358	3418.850422999264	8
0	10362	3419.774141189488	9
0	10363	3419.969457493765	8
0	10370	3420.238765425457	7
0	10379	3426.29368603963	6
0	10390	3430.838988221167	7
0	10394	3431.883201837251	8
0	10396	3432.056393976744	9
0	10398	3433.33642616023	10
0	10400	3433.364627044196	11
0	10402	3433.866222655947	12
0	10403	3433.983711952501	11
0	10412	3436.403390124279	12
0	10414	3439.387179397799	13
0	10416	3439.53427943975	12
0	10422	3440.183120092794	11
0	10428	3442.3029386867	12
0	10431	3445.691979127613	11
0	10439	3449.418811163467	10
0	10445	3449.852171489487	11
0	10446	3451.150680575637	10
0	10452	3453.659814783368	9
0	10457	3454.128707385939	8
0	10462	3455.732365934356	7
0	10473	3461.805296673089	8
0	10476	3463.630038324411	7
0	10481	3464.230731788638	6
0	10489	3465.818894909167	5
0	10495	3466.831043695144	4
0	10500	3466.97646759959	3
0	10506	3473.155906650066	4
0	10507	3473.66752202389	3
0	10514	3484.881778607538	4
0	10516	3485.365636915271	5
0	10517	3491.787646552419	4
0	10522	3493.413598198988	3
0	10532	3499.277151125644	4
0	10533	3499.857143234126	3
0	10542	3500.951543572031	2
0	10547	3500.952623777858	1
0	10553	3501.113117705223	2
0	10554	3501.380024995154	1
0	10560	3501.841845395417	0
0	10606	3512.349516928795	1
0	10608	3514.017512373432	2
0	10609	3515.837465956853	1
0	10615	3516.137360401053	0
0	10625	3521.901407083662	1
0	10628	3523.111830728628	0
0	10641	3525.416256868502	1
0	10642	3525.774147772444	0
0	10648	3525.810254956471	1
0	10652	3528.616980398745	2
0	10654	3528.825663749502	3
0	10655	3528.895757814835	2
0	10661	3532.624591328551	1
0	10668	3535.519789345175	2
0	10669	3536.627931112507	1
0	10676	3537.977476547311	0
0	10697	3540.910957744521	1
0	10698	3541.141795619632	0
0	10711	3542.507540291109	1
0	10712	3542.93126123527	0
0	10724	3547.027484371348	1
0	10726	3547.313457363945	2
0	10728	3549.478568311349	3
0	10734	3552.527151484953	4
0	10738	3552.949143977849	5
0	10739	3553.118182656849	4
0	10747	3556.023831784594	3
0	10752	3556.302717911685	2
0	10758	3556.405621105386	3
0	10759	3556.81748903909	2
0	10769	3561.383209188283	3
0	10771	3561.584608178199	4
0	10772	3561.795831578526	3
0	10777	3562.386991158768	2
0	10783	3562.935595050117	1
0	10788	3563.404998970579	0
0	10827	3574.228766224673	1
0	10830	3575.39124712979	0
0	10855	3584.63270300571	1
0	10857	3585.115021047023	2
0	10860	3587.699194149029	1
0	10866	3589.068609064663	0
0	10886	3595.608988455527	1
0	10887	3599.777753582536	0
0	10913	3605.342269904311	1
0	10916	3607.084917826324	2
0	10917	3607.380692624359	1
0	10927	3609.087556267338	2
0	10929	3611.432363391856	1
0	10935	3615.207989912923	0
0	10941	3615.423145468794	1
0	10943	3617.454021992966	0
0	10997	3641.20362068786	1
0	10999	3641.879952178604	2
0	11002	3643.928753464788	1
0	11009	3644.924130358928	0
0	11037	3650.657587414923	1
0	11039	3650.768531059014	2
0	11045	3652.396350641271	3
0	11046	3652.596085298792	2
0	11051	3653.019624756707	1
0	11058	3654.779552086808	2
0	11064	3656.068274030324	1
0	11071	3657.651708764984	0
0	11077	3658.605017439428	1
0	11081	3660.61568813216	0
0	11092	3662.104933742016	1
0	11094	3664.159413757173	2
0	11095	3665.08332493521	1
0	11105	3666.61905891013	0
0	11114	3669.137667413118	1
0	11116	3670.60564112578	2
0	11123	3674.935907850761	1
0	11131	3676.816620007061	2
0	11135	3678.249803450051	1
0	11141	3679.322051076165	0
0	11149	3679.788896622194	1
0	11154	3682.185988955953	2
0	11155	3682.352872862039	1
0	11160	3682.417935035218	0
0	11171	3684.623762183448	1
0	11176	3686.279030273223	2
0	11178	3688.205307729551	1
0	11184	3693.946812858473	0
0	11214	3708.888878884109	1
0	11216	3710.919440600471	2
0	11218	3712.260009607292	3
0	11220	3715.107540065744	4
0	11222	3719.075853300746	5
0	11223	3722.36405322922	4
0	11230	3723.70588135173	3
0	11239	3725.520765525381	4
0	11241	3725.882803854061	3
0	11249	3726.482738771999	2
0	11255	3726.581712372471	3
0	11256	3726.842439634389	2
0	11262	3727.432852330457	3
0	11263	3727.992513076239	2
0	11267	3729.491641870655	3
0	11275	3734.529389459274	4
0	11279	3736.422559725302	3
0	11287	3738.819183270013	2
0	11293	3740.506491528022	3
0	11295	3741.685801412373	4
0	11297	3741.722505547933	5
0	11300	3744.293238269712	6
0	11302	3746.253022874546	7
0	11303	3747.30791144179	6
0	11308	3747.817232022203	5
0	11315	3748.02957175569	6
0	11317	3748.039054526589	7
0	11318	3749.001150150409	6
0	11329	3750.886936026975	7
0	11332	3756.509524529799	6
0	11340	3757.038888426713	7
0	11341	3757.373074625051	6
0	11346	3758.634132931607	5
0	11356	3762.269472403801	6
0	11360	3763.638825844526	7
0	11361	3763.820422816605	6
0	11368	3764.630112248	7
0	11370	3765.864684801379	8
0	11372	3767.015835506897	7
0	11378	3767.141482563356	8
0	11383	3772.01279885166	9
0	11384	3774.678191219557	8
0	11392	3775.681918728322	9
0	11398	3779.779012043505	10
0	11400	3780.913270732028	11
0	11402	3783.981199207073	12
0	11407	3787.360530767611	11
0	11413	3788.336661039875	12
0	11417	3790.954962717599	11
0	11423	3792.856693698699	10
0	11429	3792.885826374918	11
0	11432	3797.964930855385	12
0	11433	3798.347086681143	11
0	11440	3799.828370394848	12
0	11443	3800.169673520066	13
0	11444	3800.454665901025	12
0	11457	3804.696922952847	13
0	11460	3807.654337092234	12
0	11466	3808.458608614726	11
0	11473	3809.579695214549	10
0	11479	3809.705256819419	11
0	11480	3810.277905217342	10
0	11485	3810.984815250885	9
0	11489	3810.992798835985	10
0	11493	3811.644872391968	11
0	11494	3812.463988991547	10
0	11502	3814.213043843402	11
0	11503	3815.24056630824	10
0	11512	3818.929909525499	11
0	11516	3819.640892220699	12
0	11517	3819.908547433756	11
0	11522	3819.941485072125	10
0	11527	3822.379132167276	9
0	11537	3823.940440722448	8
0	11542	3825.348320181367	7
0	11550	3827.082906803205	6
0	11556	3829.371322769371	5
0	11563	3834.484425525213	4
0	11569	3837.609194288447	5
0	11570	3839.064125360616	4
0	11578	3841.983047078035	5
0	11582	3843.836103817904	6
0	11584	3844.153426015558	7
0	11585	3844.223570982109	6
0	11591	3844.345941420174	7
0	11594	3846.067096632139	8
0	11595	3846.342351954654	7
0	11601	3851.281841400994	6
0	11606	3851.835931323587	5
0	11611	3855.348510462862	4
0	11618	3856.622513033306	5
0	11625	3860.034318408574	6
0	11626	3860.95878037084	5
0	11633	3861.863232996042	4
0	11639	3863.085790275097	3
0	11645	3863.153013202032	4
0	11647	3863.823092998366	5
0	11649	3864.099456762581	6
0	11654	3869.572783693013	7
0	11655	3869.945859151129	6
0	11661	3871.032875675668	5
0	11666	3872.932344854237	4
0	11671	3873.377014489776	3
0	11678	3878.129237324291	2
0	11683	3882.695802392722	1
0	11691	3884.72149070702	0
0	11699	3886.440588334573	1
0	11701	3888.472152424196	0
0	11708	3891.122816762126	1
0	11709	3891.519725227101	0
0	11716	3892.267383873971	1
0	11718	3893.379289283616	2
0	11719	3894.769480645107	1
0	11726	3894.961140652662	2
0	11727	3895.521659641036	1
0	11734	3896.445460630633	0
0	11759	3897.615311669646	1
0	11765	3903.551005219644	2
0	11766	3903.564847088244	1
0	11773	3904.684588285753	2
0	11776	3905.908695306207	3
0	11777	3906.224660868081	2
0	11782	3907.137334648373	1
0	11787	3907.204938566831	0
0	11794	3908.283648838512	1
0	11796	3910.171796948195	0
0	11802	3910.281624442377	1
0	11805	3910.901233186915	2
0	11807	3911.011290427171	3
0	11809	3911.434949630424	2
0	11814	3912.393962424274	1
0	11819	3913.135945212552	0
0	11852	3920.488560926696	1
0	11858	3926.604727208123	0
0	11872	3935.639481286245	1
0	11875	3936.949556939837	0
0	11884	3938.151324498528	1
0	11886	3940.03279446956	2
0	11891	3941.513714611248	3
0	11892	3944.44641175686	2
0	11898	3945.530920530712	1
0	11904	3947.534001703802	0
0	11918	3951.402835729262	1
0	11919	3952.147452061752	0
0	11925	3952.190153140073	1
0	11927	3953.11099185254	0
0	11939	3954.66011073728	1
0	11941	3958.617665020684	2
0	11943	3958.870792694595	3
0	11944	3960.073867287355	2
0	11950	3960.123172607835	3
0	11954	3961.336204189758	4
0	11956	3961.716429808825	5
0	11957	3962.369821493736	4
0	11964	3962.430993133376	5
0	11965	3965.01914415377	4
0	11970	3965.760251283234	3
0	11976	3967.18173304185	4
0	11986	3971.928135177627	5
0	11987	3972.712583729229	4
0	11995	3975.047692971344	3
0	12000	3975.224460094977	2
0	12006	3975.260605184483	3
0	12012	3978.497316784312	2
0	12018	3981.036029778731	3
0	12020	3981.115736853274	4
0	12022	3982.484571805887	3
0	12030	3982.692353881235	4
0	12032	3984.082293372577	3
0	12037	3985.107962362537	2
0	12044	3987.767000535278	1
0	12050	3989.16393005147	2
0	12054	3991.082234574295	3
0	12056	3991.780772067404	4
0	12059	3996.033444142761	3
0	12065	3996.475144262658	2
0	12071	3996.798200060445	3
0	12073	3997.115402123205	2
0	12080	3998.72137746888	1
0	12088	3999.716017021326	0
0	12124	4015.865094386675	1
0	12125	4016.128641425017	0
0	12158	4023.455466571751	1
0	12159	4024.710662346192	0
0	12166	4026.079970700562	1
0	12167	4026.62047887937	0
0	12184	4032.376201827674	1
0	12186	4034.757913449824	0
0	12194	4036.480176723171	1
0	12197	4039.027612947523	2
0	12199	4042.533111627943	3
0	12202	4044.92557007828	2
0	12210	4045.44019379944	1
0	12216	4045.760040163356	2
0	12218	4045.987508552649	3
0	12224	4053.320836777795	2
0	12230	4053.849103862171	1
0	12236	4055.744799835416	0
0	12279	4066.209157003141	1
0	12282	4068.055894875925	0
0	12289	4068.573038233956	1
0	12292	4070.326782746904	2
0	12294	4073.606617176629	1
0	12301	4076.325392444299	2
0	12305	4077.462996968153	1
0	12310	4081.638319761541	0
0	12344	4090.433031793369	1
0	12347	4090.744226267319	0
0	12354	4092.578665356461	1
0	12358	4093.420972676087	0
0	12367	4095.560941881691	1
0	12368	4095.934525409796	0
0	12383	4097.494856403222	1
0	12386	4099.352429689369	0
0	12398	4102.134418186144	1
0	12399	4102.75366500367	0
0	12416	4106.09583982213	1
0	12417	4106.186107137513	0
0	12436	4111.204096672023	1
0	12437	4116.537021747606	0
0	12448	4119.669945601753	1
0	12449	4120.963903284868	0
0	12459	4126.422393825525	1
0	12461	4127.183271204983	2
0	12465	4129.904988625587	3
0	12466	4132.483971056009	2
0	12472	4132.624991526099	3
0	12473	4133.065012305335	2
0	12478	4133.111617486622	1
0	12483	4133.347108932965	0
0	12489	4134.007043849599	1
0	12494	4137.313486532359	0
0	12502	4139.004386969482	1
0	12504	4139.250951732282	2
0	12509	4140.656428710118	3
0	12512	4142.418731919202	2
0	12517	4142.88814446614	1
0	12523	4143.240938826584	2
0	12529	4147.989481609856	1
0	12538	4151.190454975678	0
0	12549	4151.569933519614	1
0	12550	4151.807017691661	0
0	12559	4153.684705365277	1
0	12560	4154.423678593252	0
0	12574	4156.931627572261	1
0	12581	4159.125211206818	2
0	12582	4160.534779460358	1
0	12588	4163.12559817449	0
0	12600	4165.506318554634	1
0	12602	4165.677369097885	2
0	12603	4166.082409726568	1
0	12609	4167.65343820866	0
0	12632	4176.730143059244	1
0	12633	4176.824420158079	0
0	12656	4178.697677021642	1
0	12657	4179.212824694482	0
0	12669	4181.878941537167	1
0	12671	4183.258293290391	2
0	12675	4184.590579315652	3
0	12677	4184.972845922955	4
0	12678	4186.221649418998	3
0	12684	4187.898687636347	4
0	12688	4188.488480143412	3
0	12694	4194.617010520475	2
0	12700	4195.412981274651	3
0	12701	4196.569367410206	2
0	12710	4199.246742534087	3
0	12711	4199.320769209081	2
0	12719	4202.737697064095	1
0	12726	4204.398054421657	2
0	12729	4205.512483454983	1
0	12743	4212.617547736059	0
0	12760	4217.161547607264	1
0	12763	4217.807644990056	2
0	12764	4219.038763585476	1
0	12772	4224.194849280397	0
0	12821	4244.99167136353	1
0	12823	4245.105085937759	2
0	12824	4246.672243147354	1
0	12829	4246.983702657273	0
0	12835	4247.029628780356	1
0	12839	4247.826444117466	2
0	12842	4249.647370065201	1
0	12848	4249.702555028933	2
0	12851	4250.71203682743	3
0	12853	4252.115976495212	4
0	12854	4254.725292073894	3
0	12860	4255.31370938102	2
0	12867	4256.667463071871	1
0	12873	4258.310602943166	0
0	12881	4258.857320665518	1
0	12883	4261.390306069575	0
0	12889	4261.567498061822	1
0	12891	4262.523374375063	0
0	12897	4263.503601631187	1
0	12899	4265.341325094334	2
0	12902	4267.377521175793	3
0	12903	4268.528899266564	2
0	12909	4270.500818396409	1
0	12917	4273.155674084245	2
0	12919	4273.923827803612	3
0	12920	4274.119843443186	2
0	12927	4276.55516321931	1
0	12933	4278.02271779949	0
0	12940	4278.865691056812	1
0	12943	4284.955931061005	0
0	12950	4285.893326002955	1
0	12951	4286.010938486768	0
0	12963	4288.760295892876	1
0	12964	4290.578649269812	0
0	12970	4291.087964419093	1
0	12974	4291.629560117812	0
0	12983	4295.080051073268	1
0	12986	4297.683425508361	0
0	13008	4303.577805182982	1
0	13012	4303.989461344403	2
0	13016	4305.483581699098	3
0	13017	4306.463868931888	2
0	13022	4306.820080260376	1
0	13029	4307.048903536379	2
0	13031	4307.423787113128	3
0	13034	4309.505881926598	4
0	13035	4309.99310065836	3
0	13043	4310.739548656586	4
0	13045	4311.04611629433	3
0	13050	4312.023440084962	2
0	13059	4315.108710284491	3
0	13061	4316.568672097196	4
0	13064	4317.347070648191	3
0	13070	4317.427746239492	4
0	13075	4321.404906752213	3
0	13083	4322.796343596873	4
0	13085	4323.154582419966	5
0	13090	4332.965750961528	4
0	13096	4334.518290006416	3
0	13101	4337.401285236233	2
0	13106	4340.093006123167	1
0	13112	4340.439101916148	2
0	13114	4341.950006873721	3
0	13115	4343.037644033667	2
0	13123	4346.438537031546	1
0	13128	4347.833809003231	0
0	13140	4349.822203803106	1
0	13141	4350.682951138105	0
0	13153	4351.929291761276	1
0	13154	4352.186629237779	0
0	13163	4356.683161549653	1
0	13171	4359.959134343931	0
0	13199	4372.736627366688	1
0	13203	4372.823605818871	2
0	13205	4373.170179549252	1
0	13210	4374.994232239994	0
0	13219	4379.007804952292	1
0	13221	4381.813756056036	2
0	13222	4382.505446691807	1
0	13228	4385.530025595517	0
0	13234	4386.049528280851	1
0	13237	4386.361636515929	0
0	13249	4387.193380603648	1
0	13250	4389.054792480518	0
0	13279	4400.833417924007	1
0	13280	4400.88120649808	0
0	13310	4410.175750942978	1
0	13311	4411.718270184501	0
0	13325	4416.918411821583	1
0	13327	4417.643028693783	2
0	13331	4418.756833797895	1
0	13344	4422.372750501557	0
0	13355	4423.092955518738	1
0	13357	4424.18938718362	2
0	13358	4425.87204447668	1
0	13365	4426.470058663328	2
0	13367	4427.136294024486	3
0	13371	4428.087930522617	4
0	13373	4429.172896784567	3
0	13379	4430.204428309853	4
0	13384	4432.613843379924	3
0	13389	4432.642033301859	2
0	13395	4433.457356797185	1
0	13400	4433.791146832562	0
0	13415	4435.86077022189	1
0	13422	4438.066538232605	0
0	13440	4446.837282378263	1
0	13443	4449.766549003099	0
0	13449	4449.824946115819	1
0	13451	4449.877223367534	0
0	13472	4453.247300713305	1
0	13475	4453.9479921858	0
0	13516	4469.413140787608	1
0	13518	4469.662295008393	2
0	13519	4470.713103885926	1
0	13524	4471.314381053746	0
0	13530	4471.39208836851	1
0	13533	4472.208464909592	2
0	13536	4473.421234805782	3
0	13537	4474.410344164269	2
0	13544	4474.837282615407	3
0	13545	4474.99208710362	2
0	13550	4475.670053033676	1
0	13559	4480.196907729519	2
0	13560	4481.066228401187	1
0	13566	4481.873820696922	2
0	13568	4483.188785918785	1
0	13574	4483.497837471245	2
0	13576	4484.405221221575	3
0	13579	4485.079389954559	4
0	13580	4485.325373097717	3
0	13587	4485.905937391036	4
0	13588	4492.701263283403	3
0	13593	4495.646982829507	2
0	13598	4495.834835095922	1
0	13605	4496.733580535656	2
0	13607	4498.444708710142	3
0	13609	4499.940445516387	2
0	13617	4505.649945854434	1
0	13624	4508.579821906848	0
0	13648	4511.971195488379	1
0	13649	4512.281968195292	0
0	13666	4516.986290631756	1
0	13670	4521.72405930782	2
0	13671	4524.295899810133	1
0	13677	4527.018532590097	0
0	13705	4537.71703724935	1
0	13708	4538.479786117846	0
0	13714	4538.559103468148	1
0	13719	4543.372793381467	0
0	13744	4548.930796863148	1
0	13745	4549.210761112728	0
0	13760	4552.879524963488	1
0	13761	4555.105371108812	0
0	13771	4556.385894454698	1
0	13775	4558.301533007749	0
0	13781	4558.421219197659	1
0	13784	4563.289693132055	0
0	13797	4568.623530694737	1
0	13799	4571.629359182686	2
0	13800	4574.808932477503	1
0	13805	4575.191593537649	0
0	13830	4582.539559861156	1
0	13833	4583.926975526395	2
0	13836	4585.085237818024	1
0	13843	4587.516094879377	2
0	13844	4587.726203106707	1
0	13849	4589.175398925707	0
0	13857	4590.146075680008	1
0	13858	4591.838480816354	0
0	13906	4605.649072135925	1
0	13907	4606.008077543116	0
0	13919	4610.501073779967	1
0	13922	4613.778825965545	0
0	13948	4621.688336189783	1
0	13949	4623.890700763591	0
0	13970	4628.650322787716	1
0	13972	4628.756765846258	2
0	13974	4629.851722243689	3
0	13979	4635.871301125824	2
0	13987	4637.072583612495	3
0	13988	4640.217487263594	2
0	13995	4641.739528556957	3
0	13996	4645.413700835446	2
0	14002	4646.590947155551	1
0	14008	4646.921807641305	2
0	14009	4648.012351320307	1
0	14016	4653.572298611286	0
0	14046	4663.782034917524	1
0	14047	4664.441804695727	0
0	14072	4669.397144210306	1
0	14073	4671.740553389045	0
0	14085	4674.369014897769	1
0	14086	4675.510318180621	0
0	14106	4685.069298864509	1
0	14112	4688.150398242923	2
0	14113	4691.242993351741	1
0	14118	4692.529044172947	0
0	14129	4694.178616862323	1
0	14132	4695.092697833407	0
0	14138	4695.507404206146	1
0	14142	4696.124217917591	0
0	14148	4698.107884068766	1
0	14149	4698.315002964337	0
0	14155	4700.177888689813	1
0	14157	4702.043232505249	2
0	14158	4702.448695596489	1
0	14163	4704.208585434146	0
0	14180	4710.030274783295	1
0	14181	4710.508185294238	0
0	14187	4710.55638684207	1
0	14188	4714.00562895328	0
0	14214	4724.402067420899	1
0	14215	4724.755243212887	0
0	14221	4725.684259424147	1
0	14224	4727.216112228526	2
0	14225	4727.911840951627	1
0	14231	4730.72290837481	0
0	14250	4741.725640733057	1
0	14251	4742.683759475206	0
0	14261	4744.459126866457	1
0	14265	4744.776287015056	2
0	14267	4745.37424940669	3
0	14268	4745.534426828985	2
0	14274	4747.424175538331	1
0	14280	4747.606470722464	2
0	14283	4747.819452441461	3
0	14287	4749.034666553067	4
0	14290	4752.557275184348	3
0	14298	4754.096760211714	2
0	14304	4754.171369610247	3
0	14311	4757.684178424374	4
0	14312	4760.001150577047	3
0	14318	4761.354611314377	2
0	14325	4762.172311334973	1
0	14336	4766.718673017487	2
0	14340	4769.284873143089	3
0	14344	4774.516558119256	4
0	14346	4774.717839458677	5
0	14348	4775.389854067758	6
0	14350	4776.778956229559	7
0	14352	4778.737411221925	8
0	14353	4779.935044645551	7
0	14358	4780.142992691145	6
0	14364	4780.555480455887	7
0	14367	4781.366509317536	6
0	14375	4786.092045081422	5
0	14381	4786.451658069307	6
0	14383	4786.866027970085	7
0	14385	4787.651191611127	8
0	14387	4790.316754853349	7
0	14393	4793.681627523727	6
0	14402	4796.309877742719	7
0	14403	4798.455610126843	6
0	14409	4798.995193012371	7
0	14410	4801.067159288525	6
0	14416	4802.188454551581	7
0	14419	4802.396755562585	8
0	14420	4803.326434980509	7
0	14426	4803.379513685894	8
0	14427	4806.739089155082	7
0	14432	4807.55688101334	6
0	14443	4811.433302569664	5
0	14451	4811.897483854644	6
0	14453	4813.230725512794	5
0	14460	4814.039766790418	4
0	14466	4816.809160945929	3
0	14471	4816.980083236726	2
0	14475	4817.861127037694	3
0	14482	4827.394533804104	2
0	14488	4827.493781281506	3
0	14490	4828.862407120278	2
0	14496	4832.052132600894	3
0	14498	4832.406753494639	4
0	14499	4832.992990299832	3
0	14506	4837.017230244048	2
0	14512	4840.042032250987	1
0	14519	4841.576863583791	0
0	14534	4845.282074278609	1
0	14535	4845.676703388073	0
0	14542	4846.51447561599	1
0	14544	4847.32157603896	2
0	14545	4847.959035665375	1
0	14550	4848.813377891016	0
0	14581	4861.329697176992	1
0	14582	4861.624379115443	0
0	14588	4862.920407218554	1
0	14594	4864.718967007671	0
0	14605	4868.917663552817	1
0	14606	4870.850466797863	0
0	14628	4877.251458658469	1
0	14629	4879.991651498891	0
0	14646	4885.124100141268	1
0	14647	4886.57970511387	0
0	14659	4890.195878182051	1
0	14661	4891.173085349932	2
0	14667	4894.573904007013	3
0	14669	4899.44812067693	4
0	14671	4900.001762410167	5
0	14672	4900.012624869557	4
0	14682	4910.812032600194	3
0	14689	4911.873587188577	4
0	14692	4912.539685193276	3
0	14698	4917.256941705042	2
0	14705	4918.742665429886	3
0	14707	4919.572904218582	4
0	14708	4920.441822586007	3
0	14713	4921.868219244042	2
0	14719	4922.22502402498	3
0	14727	4930.403410194072	2
0	14733	4930.897287114694	1
0	14738	4930.953369081612	0
0	14780	4945.123535886872	1
0	14781	4945.45696232816	0
0	14787	4945.772269761913	1
0	14790	4948.475218272103	2
0	14792	4948.49796867491	3
0	14794	4949.772609389976	4
0	14796	4951.808258289929	5
0	14797	4952.624014682096	4
0	14803	4953.456571584975	3
0	14809	4955.027951121852	2
0	14814	4955.363338563693	1
0	14823	4955.790896912637	2
0	14825	4955.996762066047	3
0	14827	4956.60718840482	4
0	14828	4956.725506232875	3
0	14836	4957.698354991145	4
0	14838	4958.52257885024	5
0	14839	4962.081716422326	4
0	14845	4964.935011890127	3
0	14850	4964.999748463447	2
0	14859	4967.206042461836	1
0	14865	4967.223909607922	2
0	14867	4967.260442714005	3
0	14870	4971.733358379516	4
0	14872	4972.438629676607	5
0	14873	4972.938988172753	4
0	14880	4975.155832675411	5
0	14882	4975.600675028269	6
0	14883	4976.393225787695	5
0	14891	4981.259067653617	6
0	14894	4982.817416691819	5
0	14902	4983.462519017526	6
0	14904	4983.664071628724	5
0	14911	4986.117915373904	4
0	14916	4986.188979400084	3
0	14923	4986.539474436546	2
0	14930	4990.661260501656	3
0	14936	4992.720522899368	4
0	14937	4996.382487360003	3
0	14944	5000.503827728023	2
0	14948	5000.557313529526	3
0	14950	5003.683445387531	4
0	14955	5008.518948992907	5
0	14956	5009.337328265744	4
0	14968	5012.712698394789	3
0	14974	5013.738742666317	2
0	14979	5013.808800668199	1
0	14984	5014.062500164012	0
0	14996	5017.693630614526	1
0	14999	5020.824947582146	2
0	15000	5022.907098076296	1
0	15007	5024.556784165961	0
0	15011	5026.378288189894	1
0	15013	5027.511112710075	2
0	15016	5029.016970083667	1
0	15022	5033.121277973981	0
0	15029	5034.870344123441	1
0	15033	5035.043177809265	2
0	15035	5035.977812951559	3
0	15036	5036.358388966302	2
0	15042	5036.719789832465	3
0	15044	5037.09220052057	4
0	15049	5037.967588640855	3
0	15054	5038.150723689577	2
0	15059	5038.417653116539	1
0	15065	5039.261307405374	2
0	15066	5039.765477725796	1
0	15071	5041.606912342713	0
0	15094	5045.721618711198	1
0	15096	5046.658388285024	0
0	15107	5047.334755587061	1
0	15111	5049.16651060735	2
0	15113	5049.638837746289	3
0	15116	5052.366625572051	4
0	15117	5053.166470305468	3
0	15124	5053.971321764968	4
0	15127	5057.296632050886	3
0	15135	5060.591274891267	2
0	15141	5061.365705393223	3
0	15143	5062.392687967311	2
0	15148	5062.556433939804	1
0	15153	5063.109860761484	0
0	15160	5063.800334334512	1
0	15161	5064.462992997697	0
0	15205	5080.417221808674	1
0	15207	5084.405144629695	0
0	15236	5096.185661999445	1
0	15239	5096.490367294256	0
0	15245	5096.673023522546	1
0	15248	5099.63444851315	2
0	15249	5099.820707295455	1
0	15254	5100.656274527983	0
0	15270	5108.871132140008	1
0	15272	5109.957008477186	2
0	15274	5110.555461266549	3
0	15276	5112.453456345428	4
0	15279	5112.596783045676	3
0	15287	5114.781771531801	2
0	15293	5115.922036200203	1
0	15300	5117.922834688555	2
0	15301	5119.157679873203	1
0	15307	5119.26487636445	2
0	15309	5126.225129003216	1
0	15315	5127.791346762525	0
0	15357	5138.370827839525	1
0	15360	5141.608496906994	0
0	15369	5142.082391018271	1
0	15376	5148.085037944641	0
0	15385	5148.972963987717	1
0	15387	5149.559926198918	2
0	15388	5150.391227551548	1
0	15395	5151.943466592093	0
0	15418	5157.204023857927	1
0	15419	5158.247973339376	0
0	15443	5161.96555267332	1
0	15448	5163.718182068492	0
0	15455	5164.012923460147	1
0	15456	5164.203298691914	0
0	15465	5166.125232501581	1
0	15469	5171.020304618461	0
0	15475	5171.525383516492	1
0	15481	5174.340870275686	2
0	15482	5177.03315015719	1
0	15488	5177.175754853051	2
0	15489	5178.031713280538	1
0	15495	5178.408699091198	2
0	15497	5179.698535991204	3
0	15499	5179.736328488732	4
0	15501	5180.866971558379	3
0	15510	5183.995268632422	2
0	15515	5184.440856672115	1
0	15524	5187.533258096346	2
0	15526	5187.719949519089	3
0	15527	5193.027854578309	2
0	15535	5194.859313085193	1
0	15547	5202.885172522201	2
0	15549	5202.913867455458	3
0	15551	5204.852064181819	4
0	15553	5205.556591403434	5
0	15554	5207.432986908211	4
0	15559	5207.929286395484	3
0	15565	5209.047882797497	2
0	15570	5209.119384666377	1
0	15579	5211.072720635468	2
0	15580	5211.122547915262	1
0	15585	5211.810440467472	0
0	15589	5211.88608269549	1
0	15594	5212.99231037315	0
0	15614	5215.660788452193	1
0	15615	5219.523793515904	0
0	15640	5229.161305778575	1
0	15643	5233.486187890239	0
0	15649	5233.954551276005	1
0	15650	5234.63249185382	0
0	15669	5242.507420973819	1
0	15673	5243.77152992207	0
0	15688	5246.733306129218	1
0	15691	5247.522268331705	2
0	15693	5247.884388539018	3
0	15695	5247.911277754563	4
0	15697	5247.99927414365	5
0	15698	5248.294361171133	4
0	15703	5248.771032171763	3
0	15710	5249.406474483674	2
0	15718	5253.119480622715	1
0	15730	5255.49307424589	0
0	15746	5258.637324514374	1
0	15750	5263.547518412533	0
0	15762	5265.717222540758	1
0	15766	5268.095543985378	0
0	15779	5272.185593525402	1
0	15780	5273.462172715625	0
0	15797	5274.941583620784	1
0	15799	5278.368413894996	0
0	15836	5286.673262882374	1
0	15840	5287.933089305041	0
0	15860	5293.683616917205	1
0	15862	5293.936766467382	2
0	15867	5296.834036168298	1
0	15873	5297.842384016312	0
0	15892	5303.737432515119	1
0	15894	5304.032600712524	2
0	15902	5307.43682140685	3
0	15903	5308.987615515047	2
0	15909	5309.099557442786	3
0	15913	5311.139721776396	4
0	15914	5311.589479539833	3
0	15919	5311.714639343352	2
0	15925	5313.05252315269	3
0	15933	5314.749815422065	2
0	15939	5315.317935816763	1
0	15944	5315.768688570458	0
0	15955	5316.894571287233	1
0	15959	5319.783904280238	0
0	15985	5328.791469389904	1
0	15988	5330.623989360666	0
0	15995	5330.973040881844	1
0	15997	5331.209400434391	2
0	15998	5332.317546166685	1
0	16003	5332.320765688282	0
0	16016	5335.111055959478	1
0	16018	5336.478761399726	2
0	16019	5339.13905407988	1
0	16026	5340.162730515444	2
0	16027	5340.852324215856	1
0	16033	5341.83293934805	0
0	16040	5342.687970942717	1
0	16041	5343.882016970976	0
0	16047	5344.769510740121	1
0	16048	5345.468254569307	0
0	16061	5350.030415495088	1
0	16066	5352.614617455976	0
0	16084	5356.377527087186	1
0	16085	5360.636177533476	0
0	16098	5364.593701466505	1
0	16100	5366.297270764696	2
0	16101	5368.090738493635	1
0	16109	5370.824867875819	0
0	16130	5374.863407301278	1
0	16134	5380.467472513517	0
0	16152	5386.32136568764	1
0	16153	5388.97310390661	0
0	16159	5390.971606401853	1
0	16160	5391.238702161457	0
0	16167	5392.814229147726	1
0	16168	5393.365688394728	0
0	16197	5403.732621717916	1
0	16202	5408.164432889954	0
0	16209	5412.744110363611	1
0	16212	5414.929104744567	0
0	16219	5416.630196303657	1
0	16220	5416.8551007473	0
0	16230	5420.606624048628	1
0	16236	5422.984468908719	2
0	16238	5423.820480718741	3
0	16243	5426.277584975062	2
0	16249	5426.415721078949	3
0	16253	5426.718257402865	2
0	16259	5427.608430210354	3
0	16260	5428.186443710832	2
0	16266	5428.255838222416	3
0	16268	5430.701857614865	2
0	16275	5433.738670118333	1
0	16283	5438.681933143825	2
0	16284	5440.370483693506	1
0	16290	5440.476276158509	2
0	16293	5441.838930087419	3
0	16295	5442.635412278457	4
0	16296	5442.824085819294	3
0	16302	5443.288477141658	4
0	16303	5443.722912115714	3
0	16310	5444.449757708712	4
0	16311	5444.58082391511	3
0	16320	5447.763894867519	2
0	16326	5451.471577890105	3
0	16329	5456.854656155406	2
0	16335	5457.134303035269	3
0	16336	5458.514783676077	2
0	16342	5460.033046031477	1
0	16347	5460.291851284464	0
0	16351	5460.729622494741	1
0	16356	5461.572702207772	0
0	16360	5462.469796293913	1
0	16367	5467.554048507903	0
0	16374	5467.960872547135	1
0	16377	5472.55893703421	2
0	16379	5472.628891656962	3
0	16381	5472.888297213599	4
0	16384	5473.686756128626	3
0	16390	5474.10837244819	4
0	16391	5475.748159916411	3
0	16400	5479.565869157379	2
0	16406	5480.277885616984	1
0	16411	5481.750420104176	0
0	16417	5483.214338924449	1
0	16419	5485.395784019464	0
0	16460	5494.116455023828	1
0	16462	5495.282062488444	2
0	16463	5496.006737603775	1
0	16473	5498.604731167707	0
0	16496	5506.597720108414	1
0	16497	5507.210557957443	0
0	16505	5509.992445444848	1
0	16507	5510.867629310969	2
0	16508	5512.093280653108	1
0	16514	5513.73184985646	0
0	16522	5521.659313207387	1
0	16525	5528.108019228577	0
0	16559	5540.451812824683	1
0	16562	5541.84217719871	0
0	16568	5542.787944443283	1
0	16571	5545.085774482135	0
0	16578	5546.236796799378	1
0	16579	5546.409609803658	0
0	16589	5547.612186865866	1
0	16590	5549.012802650827	0
0	16618	5557.445509985302	1
0	16619	5559.126859544782	0
0	16634	5562.654034315103	1
0	16636	5562.823640209548	2
0	16638	5562.856039020579	3
0	16641	5567.663656010411	2
0	16652	5571.852296169805	3
0	16654	5572.082044289129	4
0	16656	5573.33354904676	5
0	16661	5578.715112198825	4
0	16668	5579.28973658988	5
0	16670	5583.069010518205	6
0	16673	5583.77838878746	5
0	16680	5584.849679702996	6
0	16681	5585.203485987338	5
0	16687	5585.249555230771	6
0	16690	5585.805201103129	5
0	16697	5586.715426620852	4
0	16702	5587.516307367089	3
0	16714	5590.11747879324	4
0	16718	5592.070383500053	3
0	16725	5594.163130147115	4
0	16727	5594.860822834606	5
0	16728	5595.250168087984	4
0	16733	5595.870561976445	3
0	16739	5597.196147975007	2
0	16745	5597.853649703945	1
0	16751	5598.897557051128	0
0	16783	5608.30756321314	1
0	16789	5609.686795268309	2
0	16790	5610.121914148351	1
0	16796	5611.447606536686	0
0	16802	5611.829605172989	1
0	16805	5614.797510556705	0
0	16826	5624.102255305494	1
0	16827	5625.977456001862	0
0	16834	5626.223287840554	1
0	16836	5627.177494610197	2
0	16838	5628.016925566703	3
0	16843	5631.679580654065	2
0	16848	5631.684734895067	1
0	16853	5631.706261798659	0
0	16859	5631.970573814092	1
0	16861	5632.023388102907	2
0	16864	5633.706430963569	1
0	16870	5633.88431906235	0
0	16883	5636.915485817042	1
0	16884	5637.456012867057	0
0	16899	5643.937276021171	1
0	16901	5644.253957720165	2
0	16902	5644.412724346083	1
0	16908	5645.228550111794	0
0	16931	5651.343952146522	1
0	16935	5655.26728399884	0
0	16947	5657.959517645075	1
0	16951	5660.063564202826	2
0	16955	5663.619050510415	3
0	16956	5663.850305047996	2
0	16963	5669.396062057382	3
0	16964	5670.980354630086	2
0	16970	5673.530980684529	1
0	16976	5674.128480376028	2
0	16979	5677.139647265057	1
0	16985	5677.429368715017	2
0	16987	5677.470838111196	3
0	16988	5678.112231636294	2
0	16993	5678.204852382018	1
0	17002	5683.519969001803	2
0	17003	5683.584084573799	1
0	17010	5685.356349179709	0
0	17029	5688.006391988769	1
0	17030	5689.914169454607	0
0	17052	5695.884221535112	1
0	17058	5698.230215685722	2
0	17059	5699.245320266124	1
0	17065	5699.615163752712	2
0	17067	5699.656920740253	3
0	17068	5700.166930888809	2
0	17073	5700.962630180213	1
0	17085	5705.579156360406	0
0	17091	5705.713957259604	1
0	17092	5705.768269438871	0
0	17112	5713.968289573128	1
0	17116	5715.093139886472	2
0	17117	5716.797810751246	1
0	17125	5722.087925195937	0
0	17135	5722.820905221132	1
0	17137	5723.127013380162	2
0	17138	5723.225080152023	1
0	17144	5726.640269766102	0
0	17169	5735.316401800656	1
0	17170	5735.376850935387	0
0	17176	5736.099704877471	1
0	17178	5736.435734776183	2
0	17182	5738.518739790221	1
0	17188	5738.785373281208	0
0	17203	5745.691124924276	1
0	17207	5745.949844954233	2
0	17208	5746.607260634996	1
0	17215	5747.858579449327	2
0	17220	5758.202594305068	1
0	17226	5759.796962760289	0
0	17232	5759.810056085691	1
0	17236	5760.696321188255	2
0	17237	5760.840004132089	1
0	17242	5761.366978712136	0
0	17262	5767.573950720173	1
0	17265	5769.593245216533	0
0	17275	5771.46929995674	1
0	17277	5771.782192829322	2
0	17282	5773.453282377537	1
0	17287	5773.502032408696	0
0	17296	5775.893002165937	1
0	17298	5776.339756959729	0
0	17312	5779.193485650687	1
0	17317	5781.145384343362	0
0	17327	5785.161912031952	1
0	17329	5785.392971747056	2
0	17332	5787.472086762261	1
[...]
5	84286	28060.143605875772	7.310188300948
5	84296	28067.866799932069	9.946504564294
5	84302	28070.412858419422	8.136065949882
5	84307	28071.769468513395	7.587739742746
5	84331	28084.762996204241	11.582666299206
5	84339	28089.394338542549	10.656925457642
5	84351	28093.612180307279	10.909262631966
5	84363	28095.327739686002	8.22492630115
5	84370	28096.013416414543	4.57781868702
5	84379	28099.44017596218	6.051241945297
5	84387	28100.365748221105	6.19930747991
5	84396	28102.971000619893	5.683835870028
5	84401	28103.513069457278	3.840240351704
5	84407	28105.077833579393	2.470579755995
5	84442	28110.453557924393	1.062162260636
5	84460	28120.278337203657	6.288103911925
5	84482	28127.634305343772	5.071467051489
5	84487	28128.905448613352	3.896374768559
5	84500	28131.573732758553	1.134969281955
5	84532	28140.462152007383	4.614881211761
5	84557	28151.768372054072	8.785641908114
5	84563	28152.674788441804	8.637991239743
5	84568	28152.902457798413	4.123068534143
5	84575	28153.857851263642	5.031188890146
5	84580	28155.573607034563	3.904289928856
5	84605	28163.618767982083	6.614500080068
5	84614	28170.44506311503	11.358187832253
5	84626	28178.189698690646	17.338918686404
5	84631	28178.790061551745	15.314687611014
5	84638	28179.761391188972	15.50017973387
5	84651	28187.171613701455	16.073565494357
5	84660	28187.886304184619	16.486380380738
5	84667	28188.728495412995	9.879405422019
5	84674	28190.990734274112	8.813003668138
5	84679	28191.668993956599	4.01804702572
5	84684	28191.671200515166	3.210311131547
5	84701	28197.591243955627	5.28162668403
5	84707	28197.673391968813	0.217683617906
5	84729	28205.367069278701	3.709845127691
5	84736	28206.669096740372	3.887567814258
5	84744	28208.551693250904	5.308822969707
5	84767	28226.323013145989	18.152077989739
5	84773	28227.162016690184	18.548936857446
5	84778	28228.18991456749	14.483598351368
5	84785	28229.327719340551	14.395477807557
5	84791	28230.769497769658	13.392953484235
5	84799	28231.364011725716	10.283984487166
5	84804	28231.784591907773	5.656905401807
5	84813	28241.66888776345	10.628635138956
5	84853	28258.288862464766	7.45960471175
5	84890	28278.817225279038	17.166625810343
5	84895	28279.061960428902	15.593509172234
5	84905	28280.383295617378	16.661740875665
5	84921	28288.047242563211	22.455397440807
5	84926	28288.053390917666	20.50043331796
5	84939	28291.355721190229	21.309847937421
5	84946	28291.545581279597	20.032393114074
5	84957	28299.021518873822	27.317140507997
5	84962	28299.68595498062	27.708233786763
5	84967	28299.875052077545	27.614695859385
5	84976	28303.698517180245	29.863160575278
5	84984	28309.011145261322	28.869389466793
5	84993	28314.052202620702	31.110792582079
5	84999	28314.298398553586	28.834535145838
5	85004	28314.495153170111	28.927688889876
5	85016	28323.235540709094	31.739478152071
5	85021	28324.719736352723	27.692680699522
5	85032	28327.368697040481	19.961292421569
5	85039	28332.128601590732	21.199047854883
5	85047	28333.600464980978	17.804644289669
5	85052	28333.985448874229	17.877426097241
5	85059	28335.793430930924	10.054148471299
5	85071	28339.614211275979	7.993710100859
5	85080	28340.424793529732	8.19257877511
5	85088	28344.116791417539	9.62322967996
5	85095	28345.392331587424	8.694744203221
5	85104	28349.976121872447	11.766904333843
5	85117	28355.970777952398	15.635827711186
5	85129	28361.25437219381	17.859421317644
5	85137	28363.676332081958	18.739955067824
5	85147	28365.793337850136	14.023870050016
5	85155	28369.618038058972	16.431989561452
5	85160	28369.781350234049	15.91124323332
5	85167	28371.317216665826	15.698787071425
5	85172	28371.700801200276	15.587586741129
5	85179	28374.113308246463	16.404075008949
5	85184	28374.890389177615	14.674882962171
5	85189	28375.136677093208	11.282014115912
5	85209	28380.791959181882	1.950284000146
5	85244	28387.673467471664	2.007133056734
5	85267	28397.611779111669	5.054227678276
5	85272	28398.053960453682	0.809108773529
5	85302	28403.794122905829	3.37110276571
5	85314	28405.898163134882	0.824150896241
5	85339	28414.268943126162	8.143920539699
5	85355	28423.359598215155	16.816395855215
5	85363	28426.989023481545	16.183840796845
5	85368	28428.486594821375	6.402793155947
5	85373	28429.419161430596	6.155390107737
5	85379	28430.535451976675	4.418061302163
5	85392	28435.643215025418	3.062231166216
5	85422	28446.831021576393	7.801807874286
5	85430	28447.418809961302	1.723354640238
5	85450	28452.717512334061	1.351075510349
5	85458	28454.020909536123	2.508732455494
5	85463	28454.06385767851	1.113852067711
5	85488	28465.10465464203	2.843484204514
5	85501	28471.791675049183	2.96176875126
5	85523	28481.725082238258	4.647645667424
5	85541	28487.625437438046	4.138036035009
5	85549	28488.568131704969	4.931418942087
5	85554	28490.041959980065	4.027074893899
5	85561	28491.079455114526	3.041601229107
5	85588	28497.283747721039	5.619152645946
5	85596	28500.725303548398	5.90635720031
5	85612	28509.387860635258	13.31756751777
5	85617	28510.357102894612	13.404068286445
5	85624	28516.442822373695	15.53562389913
5	85634	28522.769677931124	20.260070874699
5	85641	28524.789307226764	21.644060004998
5	85646	28526.674368889025	22.101417253862
5	85656	28532.138369034118	26.578302313904
5	85664	28536.92416771149	17.472880195321
5	85671	28542.250117606468	22.211524136342
5	85678	28543.627964577406	20.8207480353
5	85683	28545.551379789888	13.058293897821
5	85688	28548.247921230735	9.724578768071
5	85714	28560.375356903847	7.281861281537
5	85752	28576.986034880645	8.980479003729
5	85758	28579.319081731346	10.755155025955
5	85776	28583.174345087612	2.593756116104
5	85782	28585.442143109814	3.968564285705
5	85794	28587.264742418775	4.929578109537
5	85803	28588.608982813314	1.577040152997
5	85820	28592.787765866898	5.291524028101
5	85825	28593.088503672283	5.01539863237
5	85830	28593.710828495436	3.657652982945
5	85835	28594.108949872691	3.889708026127
5	85843	28596.111589642615	4.731894182407
5	85853	28599.352967882788	7.560635794197
5	85858	28601.252693492323	6.90851669947
5	85881	28606.243141601948	4.499928271344
5	85887	28610.854472775502	6.357278643004
5	85914	28623.072421239464	12.032234890525
5	85919	28623.628487655339	12.459594152262
5	85934	28627.404137457854	12.943861666796
5	85940	28628.839132159326	13.666530207716
5	85945	28628.938771103076	13.659711032815
5	85952	28630.371880505868	8.863566393146
5	85959	28631.270070069255	7.22136132401
5	85978	28635.156021283346	10.480875784272
5	85984	28636.724712226683	10.267385105258
5	85996	28639.394285573882	7.508800952175
5	86006	28643.651448066549	10.95419789112
5	86013	28644.382863144678	11.399668654404
5	86018	28644.94409572167	11.354292556711
5	86027	28648.210693953594	14.479163953934
5	86032	28649.607200465783	15.570410896565
5	86038	28650.659192333635	16.468930360355
5	86044	28651.675683306805	14.445395525681
5	86052	28654.266406437454	16.261784200343
5	86063	28659.139991632408	19.075117716641
5	86068	28660.023201156554	7.671651146216
5	86073	28660.116453310599	3.045392834816
5	86081	28661.669260533516	2.951389126346
5	86107	28675.636077351734	10.06417120278
5	86112	28676.354420842855	8.456463646658
5	86117	28676.584596344289	6.574833465454
5	86122	28679.636746727542	8.610346443862
5	86149	28694.979091470354	7.278784164086
5	86155	28696.156948535512	5.998832063465
5	86161	28700.192259201343	6.506717852042
5	86169	28703.354691863357	9.334203357324
5	86174	28704.435352948439	10.326267697943
5	86179	28705.241258123554	3.960266240739
5	86202	28713.118404029288	6.120022699968
5	86222	28718.657215202154	11.068018103222
5	86227	28718.859122148242	5.564437085661
5	86232	28719.127024944154	4.233164886966
5	86239	28720.740909147172	2.502685481374
5	86255	28725.207541710082	4.748212438203
5	86261	28725.537296153701	3.80945236437
5	86266	28726.060107508728	3.360403128501
5	86271	28727.907461332266	3.542536520983
5	86355	28755.339892604871	7.674440006078
5	86365	28761.222691244408	11.908534911856
5	86373	28762.213592690069	7.020013257157
5	86383	28766.651598711932	5.453547647512
5	86396	28770.350718139405	9.040224296861
5	86406	28774.119287882635	11.34739184591
5	86413	28774.589412966075	11.641489257692
5	86420	28778.320708901806	11.25428241132
5	86434	28783.107696349551	12.893176630757
5	86439	28783.529649276709	12.873959075748
5	86444	28783.832898173443	12.901609844046
5	86452	28786.259311876325	12.12047670412
5	86457	28786.519300412778	4.778769611487
5	86525	28819.673628939268	5.847026016429
5	86533	28822.346473481895	4.584985398086
5	86539	28822.636476921072	1.264340855115
5	86557	28825.467839212552	1.981389045518
5	86576	28832.390594663117	6.451669342977
5	86581	28832.486403951351	3.996199935207
5	86586	28832.786728162363	4.138389823134
5	86612	28841.300042677748	7.175558355429
5	86617	28841.688437638548	3.695358573231
5	86632	28844.887902007725	3.149551854243
5	86651	28850.00279010795	2.458528087111
5	86671	28864.449278979049	9.593623570295
5	86677	28865.969598632401	7.032194626496
5	86705	28874.392793340417	2.885166598699
5	86725	28882.055675924963	3.543011260297
5	86733	28884.719336580991	5.058242131975
5	86750	28889.144250546799	4.163316359852
5	86788	28896.207782375705	2.563336673179
5	86793	28896.265726127029	0.675676386799
5	86801	28897.485945226533	1.67826608074
5	86826	28907.831729417243	10.047136013451
5	86831	28908.145544253885	8.715214009816
5	86836	28908.696185516713	5.072707976417
5	86859	28916.984166176483	7.982765049745
5	86865	28917.617586593445	0.651959748528
5	86880	28922.894113333114	4.739141453556
5	86923	28943.027131086774	7.664824099298
5	86937	28944.707217628278	8.37887423789
5	86942	28945.543873904553	0.928250783505
5	86958	28949.150796419491	3.171995776963
5	86990	28961.574810353845	6.086054990025
5	87015	28976.677182291729	20.393210910686
5	87028	28980.611526229706	23.824448485896
5	87035	28982.143144393662	24.523440125794
5	87046	28988.192359437613	27.781962690529
5	87052	28988.920249162312	22.691154824429
5	87062	28989.929746332303	20.332895454488
5	87067	28990.233107057992	16.480183788603
5	87073	28990.825157257229	16.910365388267
5	87081	28992.663026372212	5.334373371569
5	87086	28993.37421505312	5.356976432504
5	87101	29003.370101727408	14.030741921578
5	87111	29007.706464773876	17.804090711997
5	87116	29008.118697731016	14.653747828666
5	87128	29013.464682332585	15.884997860668
5	87138	29019.357160990642	17.667747191685
5	87143	29019.487923294148	17.255573265142
5	87148	29019.625016068374	12.041066033344
5	87153	29020.108106131653	7.230115978647
5	87179	29031.990020626662	5.667999100177
5	87188	29033.992574354316	4.866084108342
5	87193	29034.626865522991	0.998126432812
5	87226	29044.610155319342	8.765235652646
5	87240	29051.69983823432	13.426059394449
5	87245	29052.581190307977	13.484749854342
5	87250	29053.3203043345	12.49112797645
5	87255	29053.410635461986	11.423011067499
5	87265	29055.651898407842	11.386905553979
5	87273	29057.610545760267	8.906568681501
5	87285	29063.765855638662	14.481483761095
5	87297	29073.017396910351	22.026140938443
5	87304	29075.128272188531	19.623409917628
5	87309	29076.402223497937	18.601242728035
5	87315	29083.016574083274	23.30015558682
5	87327	29089.530054287053	24.550710500986
5	87332	29089.608563184267	19.982291973043
5	87339	29091.287236306711	5.489425795462
5	87347	29094.418372069817	3.471340582854
5	87362	29100.009145041863	4.036044061909
5	87382	29106.424701089995	2.83835910021
5	87387	29107.129087527222	3.168927880542
5	87420	29115.321118777769	2.686288352062
5	87440	29129.75839182149	11.433033378494
5	87446	29132.935526651089	4.771180251841
5	87454	29135.814624356221	7.420861730249
5	87475	29143.776258153396	5.460926076208
5	87480	29143.881935308073	2.058195918443
5	87504	29156.382405357826	2.179348725151
5	87513	29163.137072124073	8.710138996431
5	87557	29173.258221576146	2.836696035377
5	87562	29173.623948153164	1.727742196906
5	87595	29194.093295451119	7.874807474617
5	87604	29198.271120899982	7.270682761725
5	87609	29198.823827933281	2.21134173564
5	87626	29207.415282259708	8.261913280924
5	87641	29212.394327399656	13.130738527691
5	87647	29215.306871506223	7.561347566818
5	87653	29216.32316156888	7.204672546785
5	87660	29218.27748125359	8.635738471979
5	87665	29219.928553764486	9.902846656697
5	87689	29229.334071541889	7.5007940294
5	87694	29229.553211442699	1.708093046995
5	87702	29233.820691290775	4.898465468548
5	87712	29238.440982932926	9.229534412211
5	87719	29241.245012954497	7.729497538258
5	87725	29241.514976142221	4.166856389803
5	87747	29254.170829173405	5.141604931393
5	87765	29257.59413324269	3.139181398908
5	87770	29258.250329344938	1.110980751521
5	87832	29279.360675732578	9.191493486466
5	87840	29283.28794246225	6.092360656231
5	87845	29284.281844273251	6.346454205053
5	87870	29289.612861395476	3.475729487047
5	87886	29295.868049460015	4.261997970233
5	87907	29305.735414312648	7.3844688338
5	87915	29309.045797632277	9.27297293881
5	87923	29312.799702976083	7.892668892547
5	87929	29315.822404455706	5.356702478851
5	87986	29344.166777642934	11.777149114123
5	87991	29344.824081823214	12.262228071096
5	87998	29347.04155299376	13.966020287313
5	88012	29355.69708950051	15.452971320345
5	88021	29357.103676407084	15.871708458011
5	88026	29357.247238337842	10.154799032149
5	88033	29359.117187739652	11.344629646836
5	88040	29359.568003060713	9.154146027053
5	88045	29361.127358837135	1.992040208729
5	88062	29363.443552556168	1.205739468926
5	88078	29368.743898394754	3.56907434563
5	88083	29369.357350132223	1.493333386101
5	88097	29375.783488480191	5.916595811553
5	88120	29388.408576599967	10.824202350284
5	88125	29390.083710279884	10.280726142478
5	88130	29390.168535199428	4.677091387952
5	88141	29392.068506318876	4.605695910017
5	88148	29392.749937458514	0.810921429573
5	88197	29414.669598534827	2.770228961385
5	88218	29418.681276963215	3.357381677527
5	88225	29421.00642189862	5.563992682225
5	88233	29425.629142018778	8.183936580638
5	88238	29426.71792523169	3.686706531779
5	88276	29435.964184983323	4.934145095501
5	88285	29438.133657837673	5.299339144632
5	88290	29438.206351379733	3.634011301784
5	88301	29446.317736288998	11.340382913088
5	88314	29451.733367581018	13.69965485782
5	88321	29452.543678176196	2.032053847912
5	88328	29453.598474256749	2.045589709999
5	88339	29457.160192606027	4.117428050331
5	88361	29461.943876212124	4.467442300125
5	88367	29464.647801610414	5.611046107007
5	88372	29465.019264759205	5.780232313025
5	88413	29475.588515964	6.629357958548
5	88418	29476.19102006523	6.794284704084
5	88425	29477.804841355001	7.397192023558
5	88437	29484.710190404995	13.898642643379
5	88447	29487.154662164437	12.615123437934
5	88453	29490.294742743118	15.048020644622
5	88461	29491.73325750908	16.175989027116
5	88475	29498.30445199539	20.797005457983
5	88481	29499.427182008591	20.068486680801
5	88486	29499.459142660827	18.364949994847
5	88491	29499.687531257395	2.092473658849
5	88508	29502.495570528947	1.887752103769
5	88516	29504.064111152676	2.373002455406
5	88555	29520.627714967797	10.379187861199
5	88561	29520.907540363725	3.672316150334
5	88574	29526.644962673378	8.648460735341
5	88579	29527.276591733395	7.489874632475
5	88586	29528.630056368553	5.069752855215
5	88595	29531.789171323967	3.75380346799
5	88608	29532.558869148586	3.796980464411
5	88613	29532.909523856338	0.965031534265
5	88620	29534.909841729803	2.553673876666
5	88625	29535.091262440092	1.948770934959
5	88640	29535.702687616225	0.403366111021
5	88671	29543.48014768096	1.862230982805
5	88686	29547.495768869009	4.634577585918
5	88692	29550.12952865694	6.593964913182
5	88699	29551.127284080049	7.423178142115
5	88704	29551.391349318564	5.649289101566
5	88756	29576.276029325037	13.142841414285
5	88766	29577.649639495037	8.471725018125
5	88771	29578.424364002927	1.343646837412
5	88781	29580.73951443037	3.19764654542
5	88786	29581.931712840196	3.013622879078
5	88817	29597.435616225128	15.266225890162
5	88823	29603.325585339734	16.788966691725
5	88830	29603.473908676535	16.07308402492
5	88835	29607.161403514697	19.245199124865
5	88843	29609.545553837157	21.452891191122
5	88850	29611.815275217729	23.250159167872
5	88863	29619.808789732565	25.001661916337
5	88876	29624.560596474348	3.317918669541
5	88899	29630.33099300248	2.268100970886
5	88914	29636.316434906827	7.680178599009
5	88923	29640.815501966804	11.020430880199
5	88935	29644.871751499012	11.569131524275
5	88957	29651.539239969571	18.01255030627
5	88963	29651.986132734219	18.365639625595
5	88968	29652.086363676617	16.793654236477
5	88973	29652.404614237985	12.892927320096
5	88982	29654.303087149315	10.948369190402
5	88989	29655.337022283672	9.533498113131
5	88997	29657.066260141975	11.090981633341
5	89015	29668.518729223586	21.566122469331
5	89020	29668.795524239617	20.44305377374
5	89027	29672.318731750439	23.926134674816
5	89037	29674.645693295116	23.535486527079
5	89042	29678.084046962989	22.930032863758
5	89057	29683.400423924737	25.773979657185
5	89069	29688.944896321202	28.099591843343
5	89075	29689.710099324744	27.117954401049
5	89081	29690.400336314109	26.145555698974
5	89086	29693.264667398551	18.71819434716
5	89093	29696.217797456808	17.893224288367
5	89102	29698.392798413051	16.712733873392
5	89117	29709.520927057964	23.013563179487
5	89126	29714.24311807186	16.267383682632
5	89133	29718.70606563095	19.198165792447
5	89139	29719.836812933601	16.141857899806
5	89144	29720.112848398387	16.209564189847
5	89149	29720.47098941322	13.688358846566
5	89167	29728.083038105226	6.115063052765
5	89178	29731.094011317087	4.62118417167
5	89212	29741.352380879989	2.66574674511
5	89236	29750.455240649553	7.293132435724
5	89241	29750.718934920654	6.531808716009
5	89259	29754.816953176762	5.286151470315
5	89264	29755.579427614615	3.3707171426
5	89285	29763.302737582409	9.440183788255
5	89293	29765.451205472911	10.849799524053
5	89301	29767.06570672619	12.301137297524
5	89309	29770.051652984524	13.373012181107
5	89315	29771.856572923562	12.91234993663
5	89357	29793.754082381174	4.056532037681
5	89362	29794.523918636125	4.728226192531
5	89369	29796.778952026742	3.980809887152
5	89388	29802.598974600059	2.69887383211
5	89393	29802.730990263755	2.214891710911
5	89408	29811.587037232434	7.816793988277
5	89414	29811.967870711731	4.863564709211
5	89445	29835.167562350004	8.102077605184
5	89472	29844.890641866071	5.714492714037
5	89483	29847.316350506053	6.483362197262
5	89491	29852.293640644953	9.369037723862
5	89497	29852.787900142635	7.862432734821
5	89502	29853.217591087525	4.933189315282
5	89519	29854.840375464549	1.19596930272
5	89529	29856.855287225062	2.869828736552
5	89534	29857.292787719306	0.448074405412
5	89555	29866.261911461558	6.780478750971
5	89560	29868.360247412569	4.636277466023
5	89579	29874.935868748337	8.90628903377
5	89584	29875.69387748719	5.223594084863
5	89590	29876.760974342701	4.497745225796
5	89598	29878.251322193442	5.683678512643
5	89604	29879.15118537867	4.324667308414
5	89625	29883.800171217769	1.966812984953
5	89632	29886.547417039077	3.287521693064
5	89638	29889.084585173194	3.243331584868
5	89664	29897.188739434841	7.972938888121
5	89672	29901.489663913371	8.396881618827
5	89680	29902.20641420768	8.57213379357
5	89685	29902.83586061687	8.748491000043
5	89693	29904.637856947428	8.46627964851
5	89704	29909.432245441808	11.909679058937
5	89709	29909.557935819576	7.662746252972
5	89717	29909.899085652221	5.926823880089
5	89732	29915.459924328648	6.10141793232
5	89737	29917.101152171406	7.496098911235
5	89747	29924.787655814499	10.279759308186
5	89752	29924.869862608877	6.494728869502
5	89759	29927.004217209327	7.915745017565
5	89768	29930.270356368093	3.579383943897
5	89777	29934.458773565561	5.568792819558
5	89782	29935.536734248624	6.214643169685
5	89800	29939.124261158355	3.010969479313
5	89839	29961.376146922573	11.055782171841
5	89846	29965.709140681031	11.955974667793
5	89851	29967.005546524582	8.091188476621
5	89875	29975.042836035303	1.879309231557
5	89887	29976.507300308455	0.907684366446
5	89902	29980.377851085785	3.291834355828
5	89929	29988.134510991164	2.999271112941
5	89934	29988.175413623854	2.341573539772
5	89967	29997.88939224529	1.378404464935

