version 2
run Third-n2-13-20191016-14:53:49-712
attr configname Third-n2
attr datetime 20191016-14:53:49
attr experiment Third-n2
attr inifile omnetpp.ini
attr iterationvars ""
attr iterationvarsf ""
attr measurement ""
attr network org.omnetpp.queueing.Pizza
attr processid 712
attr repetition 13
attr replication ""
attr resultdir results
attr runnumber 13
attr seedset 13
param **.PS.maxInventoriedPS 2
param **.U1.interArrivalTime exponential(4s)
param **.U2.interArrivalTime exponential(6s)
param **.PS.serviceTimeForInventoryU1 exponential(1.4s)
param **.PS.serviceTimeForInventoryU2 exponential(1.4s)
param **.PS.serviceTimeDirectU1 exponential(1.8s)
param **.PS.serviceTimeDirectU2 exponential(1.8s)
param **.PS.probabilityProducing 0.8
param **.CS.serviceTimeU1 exponential(2.3s)
param **.CS.serviceTimeU2 exponential(2.3s)

vector 0 Pizza.EntryQueueU1 queueLength:vector ETV
attr interpolationmode sample-hold
attr title "queue length, vector"
vector 1 Pizza.CS queueLength:vector ETV
attr interpolationmode sample-hold
attr title "queue length, vector"
vector 2 Pizza.EntryQueueU2 queueLength:vector ETV
attr interpolationmode sample-hold
attr title "queue length, vector"
vector 3 Pizza.sink lifeTime:vector ETV
attr interpolationmode none
attr title "lifetime of arrived jobs, vector"
attr unit s
vector 4 Pizza.sink lifeTimeU2:vector ETV
attr interpolationmode none
attr title "lifetime of arrived jobs, vector"
attr unit s
0	0	0	0
0	5	6.014953201419	1
0	14	12.970373519663	2
0	15	17.414309722575	1
0	20	18.543824146672	0
0	31	18.946364158218	1
0	34	19.187540931573	2
0	38	21.739089329722	3
0	42	24.053074860128	2
0	48	24.487792180254	3
0	49	25.035332668696	2
0	54	26.055812822766	1
0	59	26.978972202405	0
0	101	44.478659327011	1
0	103	44.478707479472	2
0	105	44.982575307703	3
0	107	46.11722239716	4
0	109	46.590223635339	5
0	113	47.651127612007	4
0	119	49.699892026624	3
0	127	51.108981556178	2
0	133	51.57263572995	3
0	137	52.883122951309	2
0	143	53.154237404597	1
0	150	55.283446481478	2
0	151	55.413375510198	1
0	156	56.061465708791	0
0	164	58.031323108831	1
0	166	59.11676797229	2
0	170	62.167791127565	3
0	172	62.548761929084	4
0	175	65.80218302842	5
0	177	66.104256126288	6
0	181	66.92720994909	7
0	182	67.405894146938	6
0	187	67.765850896043	5
0	195	69.320808600907	6
0	196	69.377900019345	5
0	201	69.406722724008	4
0	206	72.576377712155	3
0	211	74.08031743236	2
0	216	74.791560129732	1
0	222	75.609831936297	2
0	223	75.678302818368	1
0	229	77.214504961409	0
0	267	83.84625048545	1
0	271	84.827063560474	2
0	274	85.786352721507	1
0	279	85.836114846302	0
0	295	88.811498053344	1
0	297	90.067850931646	0
0	323	102.289432795758	1
0	324	102.550991673235	0
0	331	103.083623883432	1
0	332	103.091439084935	0
0	339	104.394638793395	1
0	343	108.335633879154	0
0	353	108.815430999517	1
0	364	118.548761739868	2
0	365	121.583024083951	1
0	370	121.634013744847	0
0	384	125.620566943539	1
0	385	126.535351641107	0
0	391	126.654246748956	1
0	394	127.721593888181	2
0	395	128.424555438579	1
0	403	130.45091507786	2
0	404	131.595174237988	1
0	410	132.63491259258	0
0	422	136.134082407919	1
0	425	136.83787638087	2
0	429	138.130190987963	3
0	431	139.157526601216	4
0	432	140.117435272844	3
0	437	140.454276394691	2
0	445	141.473514168994	3
0	447	141.690773805805	4
0	448	143.179748092277	3
0	454	144.611826238119	4
0	458	145.404304028455	5
0	462	146.726767191999	6
0	463	149.427517459436	5
0	469	149.535752298244	6
0	471	150.067788046816	5
0	477	150.095855522956	6
0	481	152.087483533305	7
0	483	152.830693876844	8
0	485	156.913342872516	9
0	486	163.134860799219	8
0	492	163.374745740267	9
0	498	168.79416861923	8
0	504	170.452643778116	9
0	509	174.418394666653	8
0	514	174.441151385751	7
0	519	175.477430436384	6
0	526	180.013060652144	5
0	531	180.361552261803	4
0	539	182.671268488001	5
0	541	184.19464502276	6
0	544	186.347233090449	5
0	549	186.640231136801	4
0	556	189.559739795219	3
0	562	190.055682486427	2
0	568	190.806002209223	1
0	574	192.00871173235	0
0	590	195.165173353692	1
0	597	197.477512354783	0
0	614	199.682660407334	1
0	615	209.169488623423	0
0	624	213.440222256373	1
0	625	219.790790360958	0
0	636	221.890577742602	1
0	637	222.118937261483	0
0	648	222.861477292487	1
0	650	224.582147157906	0
0	662	226.663414689634	1
0	663	227.035448205956	0
0	686	237.067491873433	1
0	691	238.343324075055	2
0	692	238.377075698176	1
0	702	242.494693466489	0
0	714	245.714132983099	1
0	715	247.559260227564	0
0	726	250.456884631622	1
0	728	252.263139903332	0
0	743	253.439224753137	1
0	745	253.932022529339	2
0	747	254.737315665788	3
0	748	256.819215197886	2
0	754	257.697580229481	1
0	760	257.839625620774	2
0	761	258.746316241806	1
0	766	259.047457234362	0
0	780	260.993275937893	1
0	782	261.216750858908	2
0	783	261.659718005959	1
0	789	262.040985514142	0
0	813	273.04841274971	1
0	814	275.558344052301	0
0	820	276.017130498237	1
0	823	281.226386268541	0
0	848	287.993067187387	1
0	849	288.909362439907	0
0	855	290.47914349158	1
0	857	291.123437297904	0
0	863	291.296621439552	1
0	867	294.290934809745	2
0	868	295.078060371904	1
0	873	295.207015235885	0
0	879	295.408216800032	1
0	880	295.743937354653	0
0	900	299.165776067544	1
0	902	299.389533494605	2
0	906	301.861864731629	3
0	908	303.52188742302	2
0	914	303.744800280889	3
0	917	305.529470258049	4
0	918	305.783703655727	3
0	924	305.91135965569	2
0	933	308.905093236677	3
0	935	316.59031635378	2
0	940	319.197066790211	1
0	947	319.752793682107	0
0	951	321.777518694586	1
0	955	323.238114238881	2
0	958	326.242907463321	1
0	962	326.498949374114	2
0	964	326.608368602669	3
0	967	327.56775392194	2
0	971	329.141860372648	3
0	973	331.54249668176	4
0	978	333.179984148989	3
0	982	333.303954409315	4
0	986	335.19133997333	5
0	988	335.225772560852	6
0	989	335.589126366413	5
0	993	337.748045581963	6
0	1006	342.889048122458	5
0	1010	343.2728234048	6
0	1016	344.228622871127	5
0	1021	345.330901195839	4
0	1025	345.771083997048	5
0	1027	345.857603685311	6
0	1029	346.323730942476	7
0	1031	346.570569670357	8
0	1036	349.2810086519	7
0	1042	353.09995679791	6
0	1048	353.461053649762	5
0	1054	353.770268447191	4
0	1059	354.219593566369	3
0	1067	358.529970577549	4
0	1068	358.794185756419	3
0	1077	360.70216944907	2
0	1085	362.465902002528	3
0	1086	362.855339599961	2
0	1093	364.406132342514	3
0	1095	364.559071281892	4
0	1096	364.737154469002	3
0	1103	366.592261818882	2
0	1113	367.178426580519	3
0	1114	368.068825270026	2
0	1119	368.119813689706	1
0	1125	370.298872846488	0
0	1135	372.285810759162	1
0	1136	372.932557131213	0
0	1147	375.692489391949	1
0	1151	376.316760552853	2
0	1155	381.172416195718	1
0	1161	382.528768454725	0
0	1165	384.285538063167	1
0	1174	387.218152735878	0
0	1228	404.838316635537	1
0	1232	406.447442794607	2
0	1234	408.15818331149	3
0	1237	409.129401259107	2
0	1242	409.177106505667	1
0	1248	410.066131145467	2
0	1251	411.666381640853	3
0	1252	411.81259856634	2
0	1259	414.183888598865	3
0	1263	415.02944897066	4
0	1265	419.57049637356	3
0	1270	420.837056826461	2
0	1279	422.078411370742	3
0	1280	422.164748991386	2
0	1286	422.888466622958	1
0	1293	427.300661686913	0
0	1297	428.137595281905	1
0	1300	429.47531096054	0
0	1310	431.114510755111	1
0	1314	440.958582953317	2
0	1315	441.923517572203	1
0	1320	442.025906230386	0
0	1339	447.028994670167	1
0	1341	448.351650907833	2
0	1344	450.82183564146	1
0	1351	452.52084548954	2
0	1352	453.599476550007	1
0	1357	453.63174608194	0
0	1393	459.643182508471	1
0	1395	462.800354767269	2
0	1396	465.601505996244	1
0	1403	466.277667625912	2
0	1405	466.336232986452	3
0	1407	467.766642527101	4
0	1408	468.843263371013	3
0	1414	468.923511503322	4
0	1415	469.384549213523	3
0	1422	471.025017510454	2
0	1432	477.753148422901	1
0	1440	478.615617316037	2
0	1443	480.563680236953	1
0	1451	481.53896222607	0
0	1468	483.618823599147	1
0	1471	486.685108818661	0
0	1477	487.978226083249	1
0	1479	489.864116957042	2
0	1482	493.512337225511	1
0	1491	494.71049885997	0
0	1499	496.316596727754	1
0	1507	499.530474339116	2
0	1508	499.953975589657	1
0	1513	499.981909980674	0
0	1519	502.644677274433	1
0	1520	502.771545833748	0
0	1542	505.416369658152	1
0	1544	505.583383661354	2
0	1547	509.27166712042	1
0	1553	509.550082285433	0
0	1560	510.840624956827	1
0	1561	511.933620430799	0
0	1611	529.36667523999	1
0	1612	529.40879749399	0
0	1623	529.830734688768	1
0	1625	530.044808917037	2
0	1629	532.070366081757	3
0	1634	534.845294380379	2
0	1639	535.103528570758	1
0	1644	536.017539805829	0
0	1651	538.818762509384	1
0	1655	539.857418636423	0
0	1667	541.143819116951	1
0	1668	541.823287315394	0
0	1681	545.672279106123	1
0	1683	547.191729887943	0
0	1694	549.845238944609	1
0	1696	553.045668890628	0
0	1710	556.623260290446	1
0	1712	559.12089654031	2
0	1713	559.462211844281	1
0	1719	559.945095123612	2
0	1722	562.546562102563	1
0	1728	564.224901857211	0
0	1735	564.372074317296	1
0	1737	564.394553721538	2
0	1738	564.862811554006	1
0	1744	565.356619065984	2
0	1746	569.755261541765	1
0	1751	569.786512483457	0
0	1775	580.276383659635	1
0	1777	580.723832359186	2
0	1778	581.746372048404	1
0	1785	584.344202869398	2
0	1786	584.737402660449	1
0	1792	584.983959402295	2
0	1793	587.572047018591	1
0	1799	588.434697026647	0
0	1839	604.763327137645	1
0	1841	606.981298373066	2
0	1842	608.025446372816	1
0	1848	611.199369026628	0
0	1855	612.808437977811	1
0	1857	612.986040909831	2
0	1859	615.507308138704	3
0	1860	617.169336727684	2
0	1865	617.922063698295	1
0	1872	618.400680562381	2
0	1875	620.265929028094	3
0	1876	620.669699555164	2
0	1883	622.591261924163	1
0	1888	624.648418810415	0
0	1899	627.087415614234	1
0	1900	627.492371300263	0
0	1917	636.666886069102	1
0	1921	637.451112407151	2
0	1922	639.840460501476	1
0	1929	642.081852247512	2
0	1931	645.574952392185	3
0	1932	646.241038348867	2
0	1940	650.292123906417	1
0	1945	650.939015559971	0
0	1994	673.696236614228	1
0	1997	677.37665531178	0
0	2014	684.231038369277	1
0	2017	684.66502965183	0
0	2023	685.359144204497	1
0	2025	686.003481194478	2
0	2026	686.757948236726	1
0	2033	687.040242810158	2
0	2037	688.997357985825	1
0	2042	689.253209137378	0
0	2057	691.995075228464	1
0	2061	694.454054714651	2
0	2062	695.135602817489	1
0	2068	695.298711371305	2
0	2073	697.033949954128	1
0	2079	698.28042100794	0
0	2122	725.062852028098	1
0	2124	725.180904364769	2
0	2125	725.192810561427	1
0	2132	725.627096217845	0
0	2140	726.416203733565	1
0	2141	726.636338081328	0
0	2145	727.667966689432	1
0	2147	728.351646524021	2
0	2152	733.166018594385	1
0	2157	733.184498371747	0
0	2164	733.654429973048	1
0	2170	737.008078894803	0
0	2178	738.315959226199	1
0	2180	738.359409345519	2
0	2182	739.077174744555	1
0	2187	739.462738191284	0
0	2197	739.849542750831	1
0	2199	739.979031677059	2
0	2200	740.536356104623	1
0	2208	745.566071268507	2
0	2210	746.099433690298	3
0	2212	747.789734765656	4
0	2214	751.464633541671	5
0	2215	751.569443283759	4
0	2223	753.277205078583	3
0	2230	754.028105636709	4
0	2232	755.175398430812	5
0	2233	756.452740182087	4
0	2241	758.138695129526	5
0	2243	760.243341646773	4
0	2249	762.287116598762	3
0	2254	763.55268779258	2
0	2259	765.251790198011	1
0	2268	770.730520062886	0
0	2272	771.65716311448	1
0	2276	773.812060961256	2
0	2278	774.618797358474	3
0	2280	774.964954566325	4
0	2281	777.293528883896	3
0	2287	779.159025632736	4
0	2297	783.390379245386	3
0	2302	783.739205618658	2
0	2306	783.843166356089	3
0	2311	785.091662459767	2
0	2316	787.06350884075	1
0	2325	791.47086450793	0
0	2331	791.657478833943	1
0	2335	792.20283013747	2
0	2336	792.635400984298	1
0	2341	793.39479172493	0
0	2345	793.869852623307	1
0	2347	794.357240708382	2
0	2352	799.377095676587	1
0	2363	802.092655229693	0
0	2375	803.974130138543	1
0	2376	804.816887439459	0
0	2383	807.761125608652	1
0	2384	808.153711484759	0
0	2407	817.163624241632	1
0	2409	818.122203807695	2
0	2416	825.722266137557	1
0	2423	826.35605471703	2
0	2426	829.056148358618	1
0	2433	832.017612716819	0
0	2448	838.900610649111	1
0	2449	839.133657975877	0
0	2471	842.319034715932	1
0	2475	846.087659626934	2
0	2476	848.638069516352	1
0	2481	849.509470370083	0
0	2490	856.033764974033	1
0	2493	858.309276596432	0
0	2504	859.093639612375	1
0	2507	860.339712254718	0
0	2513	860.943580034182	1
0	2514	861.223763594855	0
0	2544	873.428630364996	1
0	2550	876.112727322258	2
0	2551	876.822834776363	1
0	2557	879.815896694005	0
0	2564	881.462780824561	1
0	2565	881.476280449383	0
0	2590	891.542767520683	1
0	2594	892.616649572944	2
0	2596	893.102049211495	3
0	2603	896.009747399999	2
0	2609	897.277542124813	1
0	2616	899.8702764993	0
0	2629	903.224632772642	1
0	2630	903.811110045876	0
0	2658	912.633152502987	1
0	2659	914.535827503364	0
0	2666	916.175718906068	1
0	2667	917.750333009131	0
0	2699	935.247233209424	1
0	2701	935.35062885702	2
0	2704	941.665433963084	1
0	2710	942.660135239212	2
0	2711	943.29718755955	1
0	2716	944.162947482279	0
0	2735	950.702875879063	1
0	2736	950.80625315505	0
0	2747	951.93072391208	1
0	2751	955.302765497871	0
0	2769	958.4495242086	1
0	2770	964.256358149993	0
0	2777	965.879899128403	1
0	2779	968.469866500289	0
0	2785	971.212115928232	1
0	2787	972.655099904848	2
0	2788	974.912694290019	1
0	2794	974.972126997129	0
0	2819	980.813848376985	1
0	2822	985.283352017333	0
0	2831	987.380350588971	1
0	2833	987.762497660653	2
0	2837	988.007378644659	3
0	2841	989.524522764911	4
0	2843	991.335094091461	5
0	2846	996.614895164191	4
0	2851	996.660990491988	3
0	2856	999.145959953525	2
0	2865	1000.388104267733	3
0	2869	1001.648874970157	4
0	2871	1002.471832480287	5
0	2873	1003.3940921129	6
0	2874	1003.958621718415	5
0	2885	1008.411042000294	6
0	2886	1008.986982258245	5
0	2894	1014.116836227173	4
0	2899	1017.039193486966	3
0	2904	1017.375253244839	2
0	2908	1019.50713719327	3
0	2914	1021.806294394969	4
0	2918	1023.592423487073	3
0	2925	1027.550863932337	2
0	2931	1030.481954440007	3
0	2936	1032.541629903709	2
0	2942	1034.746546141436	3
0	2944	1035.072994317648	4
0	2946	1036.161057436121	5
0	2947	1038.139181926561	4
0	2954	1041.983764253811	3
0	2961	1044.83013975127	2
0	2971	1049.287363004574	3
0	2972	1052.357187363687	2
0	2981	1055.130232673764	1
0	2989	1056.374093475778	2
0	2993	1058.118144561919	3
0	2996	1061.466115149033	2
0	3003	1064.550720966034	3
0	3004	1065.769236193477	2
0	3011	1067.704440273594	3
0	3013	1070.175541939692	4
0	3015	1073.972639050686	5
0	3017	1075.812160536986	6
0	3019	1078.763000293249	7
0	3020	1079.411748308741	6
0	3026	1081.17704969306	5
0	3033	1082.08830061055	6
0	3034	1082.937293160168	5
0	3041	1083.872543205024	4
0	3051	1086.075776582523	5
0	3052	1086.99689634009	4
0	3060	1089.975982134407	5
0	3063	1092.680391638052	4
0	3071	1095.09125051932	5
0	3074	1096.840274340043	4
0	3079	1097.431261913435	3
0	3085	1099.925046118723	2
0	3092	1100.269985160726	3
0	3096	1103.05249916641	2
0	3102	1105.125294919234	3
0	3103	1105.30484798356	2
0	3108	1106.331463041686	1
0	3112	1106.86555502297	2
0	3121	1114.752645226583	1
0	3126	1117.027982145451	0
0	3145	1122.963984874519	1
0	3148	1126.324132322891	0
0	3156	1127.283031035117	1
0	3158	1127.389372520226	2
0	3164	1129.727517535552	1
0	3170	1130.464858139449	0
0	3178	1131.078008605797	1
0	3180	1132.240252785833	2
0	3182	1132.513755274164	3
0	3184	1135.245780028436	4
0	3186	1136.858319582663	5
0	3188	1137.380523609656	6
0	3194	1145.614408634786	7
0	3200	1146.211442136411	8
0	3202	1146.423104123548	9
0	3203	1149.186045256987	8
0	3209	1149.809105407593	7
0	3214	1151.672693676321	6
0	3222	1154.791122232071	5
0	3228	1156.918369731257	6
0	3230	1158.602718806352	5
0	3236	1159.214750063523	6
0	3241	1159.990825203567	7
0	3246	1162.194811955422	8
0	3250	1163.819120824146	9
0	3251	1164.10895741502	8
0	3257	1164.746072225089	7
0	3265	1168.818667200591	6
0	3272	1171.108443755694	7
0	3273	1171.154556443479	6
0	3278	1172.267169965945	5
0	3283	1173.327185850863	4
0	3287	1175.122773826379	5
0	3294	1180.071380478182	4
0	3301	1184.881553657326	3
0	3305	1187.286651327971	4
0	3311	1192.005884039437	5
0	3313	1192.30728710741	6
0	3320	1195.378872747735	5
0	3325	1196.194472947521	4
0	3330	1196.438576030312	3
0	3334	1197.920512500963	4
0	3339	1198.569315748914	5
0	3345	1199.812750760105	6
0	3346	1199.941522734761	5
0	3351	1200.142691149236	4
0	3360	1206.253940634444	3
0	3365	1206.574790124635	2
0	3371	1207.170215848376	1
0	3377	1208.489585699123	2
0	3378	1209.624961170869	1
0	3386	1213.262566790785	0
0	3417	1218.833919800153	1
0	3418	1219.125922812662	0
0	3429	1220.223948493295	1
0	3430	1221.36187592267	0
0	3436	1221.814886716404	1
0	3439	1223.821627651526	0
0	3456	1228.2204798606	1
0	3458	1230.107569542335	2
0	3459	1232.201423940073	1
0	3464	1232.554078615067	0
0	3487	1243.942890059865	1
0	3494	1245.647593989108	2
0	3495	1245.859100714411	1
0	3502	1246.766656753449	0
0	3522	1251.996978593321	1
0	3526	1253.261947279034	2
0	3527	1253.856562738768	1
0	3532	1254.452244654467	0
0	3538	1254.554226929372	1
0	3539	1255.061800314045	0
0	3545	1255.926392393293	1
0	3547	1255.944958878114	2
0	3549	1259.870335338513	3
0	3550	1260.456705537948	2
0	3560	1263.771946675975	3
0	3561	1264.073613797665	2
0	3571	1265.74341792806	1
0	3577	1265.918530385457	2
0	3579	1266.273562894792	1
0	3585	1266.433280280904	2
0	3587	1269.232654644364	1
0	3596	1270.604049057514	2
0	3598	1270.981953230161	3
0	3601	1275.484344314053	4
0	3602	1275.959306498149	3
0	3609	1276.593237333902	4
0	3612	1276.838836390502	5
0	3613	1278.334092096382	4
0	3619	1278.883569299289	3
0	3627	1279.415657555104	2
0	3637	1281.542080216171	3
0	3639	1283.888762144744	2
0	3648	1286.946264565112	3
0	3650	1287.142141248856	4
0	3652	1287.441174391477	5
0	3653	1287.867837540619	4
0	3659	1289.199062203213	3
0	3666	1290.535623793879	4
0	3670	1294.710633783751	5
0	3671	1295.768045738665	4
0	3677	1296.427087311774	3
0	3682	1296.432193384998	2
0	3688	1297.614594069963	1
0	3693	1298.837923176497	0
0	3697	1298.917675080038	1
0	3699	1303.438191093214	2
0	3702	1308.191760961808	1
0	3706	1308.458089734768	2
0	3710	1309.079194494306	1
0	3716	1309.340017846247	0
0	3722	1309.448040540172	1
0	3725	1310.265801426325	0
0	3739	1313.255058776741	1
0	3744	1316.182552374362	2
0	3748	1320.942737371665	3
0	3750	1321.19557916694	4
0	3751	1321.68838673038	3
0	3756	1321.760325454533	2
0	3762	1322.430264094226	1
0	3768	1322.682332014225	2
0	3770	1326.032941407397	3
0	3771	1326.13360500101	2
0	3775	1326.555451517736	3
0	3777	1327.150593367585	4
0	3779	1328.592899362238	5
0	3784	1329.140261199608	4
0	3789	1330.021350186963	3
0	3793	1330.894870566689	4
0	3795	1331.3363426056	5
0	3805	1339.419882954679	6
0	3806	1343.410757749898	5
0	3813	1345.537426027252	6
0	3815	1346.603377767539	7
0	3816	1349.860579458244	6
0	3823	1349.961583236801	7
0	3824	1351.460381680036	6
0	3830	1352.203093671388	5
0	3840	1354.993995402697	4
0	3846	1355.637854189454	5
0	3847	1356.211622819125	4
0	3851	1356.724625188126	5
0	3857	1358.105594933604	6
0	3859	1359.050743769508	7
0	3861	1360.134101937292	8
0	3864	1360.68644777816	7
0	3872	1361.623901975883	6
0	3879	1362.483603133988	7
0	3880	1367.644204537991	6
0	3887	1370.359164376764	7
0	3890	1372.126634357737	6
0	3896	1372.318245057153	7
0	3897	1373.793533878062	6
0	3903	1373.906857054412	7
0	3907	1375.331950551037	8
0	3908	1379.40664055931	7
0	3913	1380.041095172334	6
0	3919	1380.737111398601	7
0	3921	1381.502643456241	8
0	3922	1384.826512588306	7
0	3926	1387.848548994203	8
0	3930	1391.253026877387	7
0	3935	1391.531755096223	6
0	3939	1392.24386190598	7
0	3941	1393.36869025483	8
0	3946	1399.738322326868	7
0	3953	1400.81933828122	8
0	3954	1402.274462394045	7
0	3960	1403.31814234474	6
0	3965	1403.413277745736	5
0	3970	1404.271311249041	4
0	3976	1405.881521977178	3
0	3983	1406.61474749552	2
0	3988	1410.894358681199	1
0	4001	1416.618295044104	0
0	4016	1418.712506391858	1
0	4017	1419.919332096021	0
0	4036	1426.194194945002	1
0	4038	1427.086714065003	2
0	4039	1427.676625301332	1
0	4046	1429.277292374257	2
0	4048	1429.55180962384	3
0	4049	1430.785337903209	2
0	4054	1431.033575154018	1
0	4059	1431.601066133873	0
0	4063	1432.099186088838	1
0	4066	1438.021446051057	0
0	4080	1447.049881424534	1
0	4081	1449.146823371105	0
0	4089	1451.150261774932	1
0	4093	1458.703494182544	2
0	4095	1460.62749392502	3
0	4097	1461.399519634538	4
0	4100	1463.473425977691	3
0	4104	1464.303966350591	4
0	4109	1466.301475689349	5
0	4115	1472.349755489261	4
0	4120	1473.798833937599	3
0	4125	1474.958951076868	2
0	4131	1475.481744792803	3
0	4133	1476.257896524018	4
0	4136	1478.777402887122	3
0	4142	1479.640651031348	4
0	4144	1481.080480836681	3
0	4151	1482.001892648367	4
0	4153	1482.748544216365	5
0	4154	1483.978632899218	4
0	4159	1484.469638245801	3
0	4164	1484.599826901387	2
0	4169	1485.496001016563	1
0	4175	1487.676241899998	2
0	4176	1487.906134190192	1
0	4182	1489.901830213325	2
0	4188	1490.249241413569	3
0	4189	1490.549701304443	2
0	4195	1491.892506840871	1
0	4200	1492.242619770385	0
0	4211	1493.798491163524	1
0	4212	1494.692981847332	0
0	4238	1508.125272803857	1
0	4239	1510.771969981387	0
0	4248	1511.434407526144	1
0	4251	1512.436835616309	0
0	4277	1526.650811575345	1
0	4282	1526.907821697839	0
0	4301	1533.074766258177	1
0	4302	1533.203587099903	0
0	4312	1536.800307772499	1
0	4316	1539.444933158929	2
0	4318	1540.680911177596	3
0	4319	1542.170590448435	2
0	4324	1543.000268741822	1
0	4330	1543.978574323812	0
0	4347	1546.505668075428	1
0	4348	1546.778412641121	0
0	4352	1546.965030126091	1
0	4357	1550.092628375763	0
0	4365	1550.750053536107	1
0	4367	1552.123156175247	0
0	4378	1553.108692079644	1
0	4384	1559.969273309193	0
0	4402	1562.828692532254	1
0	4404	1563.404936052933	0
0	4418	1570.244433430482	1
0	4419	1571.986725124434	0
0	4426	1573.147275711123	1
0	4427	1574.818904136086	0
0	4433	1574.953187383309	1
0	4435	1575.160783100816	2
0	4437	1576.674597414265	1
0	4442	1578.827732970814	0
0	4449	1579.167612720965	1
0	4453	1582.373573540075	0
0	4473	1588.253408373602	1
0	4480	1589.95757744256	2
0	4481	1591.050067065181	1
0	4487	1591.139642305377	2
0	4488	1591.98555428958	1
0	4493	1592.809671698809	0
0	4503	1596.059146947809	1
0	4505	1596.702828535287	2
0	4511	1598.785320216634	3
0	4512	1601.513778489868	2
0	4519	1601.989887946069	3
0	4521	1603.822154825442	2
0	4530	1606.090569350213	3
0	4531	1606.641195032921	2
0	4536	1608.643557321032	1
0	4546	1609.945736752907	0
0	4554	1611.086045473524	1
0	4555	1611.313812937229	0
0	4561	1614.25189686235	1
0	4564	1615.476193084104	0
0	4576	1618.660590495378	1
0	4578	1619.546972974071	2
0	4579	1621.58193743061	1
0	4585	1622.439881477419	2
0	4587	1622.85823017342	3
0	4588	1622.876667007264	2
0	4594	1623.268848245192	3
0	4595	1623.315241313789	2
0	4599	1623.858228371218	3
0	4604	1625.605797449365	2
0	4612	1630.419741113	1
0	4621	1633.297552118983	0
0	4642	1640.188579111225	1
0	4647	1642.29116471447	0
0	4654	1643.336826203794	1
0	4655	1644.138077493218	0
0	4665	1647.538995576231	1
0	4669	1649.226533527951	2
0	4670	1649.809574535983	1
0	4677	1651.152517899571	2
0	4680	1651.824404865134	1
0	4686	1652.779073246234	0
0	4703	1653.600221415231	1
0	4705	1654.021790964916	2
0	4713	1655.245793322071	3
0	4717	1656.705165195864	4
0	4720	1658.248129745968	3
0	4725	1658.473542124555	2
0	4730	1659.248715582325	1
0	4734	1659.791386663754	2
0	4739	1661.459274208057	1
0	4749	1663.933034258032	0
0	4772	1668.950787741071	1
0	4775	1669.494462070046	0
0	4784	1675.127556056246	1
0	4789	1676.023775300159	0
0	4799	1680.706511386781	1
0	4800	1682.136863318602	0
0	4806	1683.696505054584	1
0	4808	1685.166860415408	0
0	4815	1685.267871444344	1
0	4816	1687.278887514277	0
0	4828	1691.215083577091	1
0	4832	1693.849400475464	2
0	4833	1695.156439225835	1
0	4842	1701.964405200917	2
0	4843	1705.057939101648	1
0	4848	1705.796158839407	0
0	4880	1717.496272290133	1
0	4882	1718.004261618775	2
0	4883	1719.118925117776	1
0	4890	1720.360081847277	0
0	4896	1722.569033108695	1
0	4898	1723.654122482076	2
0	4899	1724.97909136702	1
0	4905	1725.426720552531	0
0	4913	1726.873802362091	1
0	4916	1730.0750429313	0
0	4931	1732.628004006464	1
0	4935	1734.418453004227	2
0	4941	1738.611915039383	3
0	4942	1739.687182360044	2
0	4948	1740.94345404791	3
0	4950	1743.776664045175	2
0	4956	1744.693721142629	1
0	4962	1746.14752890776	0
0	4974	1746.736808494255	1
0	4977	1747.587622554945	0
0	4987	1750.795415077917	1
0	4990	1752.433084180696	0
0	5007	1760.24785972867	1
0	5009	1761.750681324436	2
0	5011	1762.595943870067	3
0	5013	1763.469450431274	4
0	5019	1767.317436715023	5
0	5025	1769.993110264936	6
0	5027	1770.584761979458	7
0	5029	1771.249027383165	8
0	5030	1771.259947793981	7
0	5038	1772.939776758633	8
0	5040	1773.026251859683	9
0	5044	1775.101199672266	8
0	5049	1775.409365867421	7
0	5060	1782.015321181936	6
0	5067	1782.265258899428	7
0	5068	1783.265536945206	6
0	5073	1783.456439562474	5
0	5078	1783.525964754631	4
0	5084	1788.118692716814	3
0	5089	1788.401628109431	2
0	5098	1789.676355383938	1
0	5103	1791.244855525637	0
0	5109	1793.371009037316	1
0	5111	1795.782168503013	2
0	5113	1796.749358444709	3
0	5115	1797.036813440949	4
0	5116	1801.904501968796	3
0	5122	1804.008662289473	4
0	5126	1804.159767426757	3
0	5133	1805.034003837864	4
0	5137	1807.870151018402	3
0	5147	1812.920622876732	4
0	5151	1813.670887496521	5
0	5152	1813.671813387372	4
0	5160	1815.366086441593	5
0	5162	1816.099024246725	4
0	5169	1818.259499289306	3
0	5176	1821.590048821245	4
0	5178	1824.395811678295	3
0	5185	1827.182472594669	2
0	5193	1828.351214989277	1
0	5199	1828.485938289799	2
0	5200	1832.499755673234	1
0	5204	1832.782197765778	2
0	5210	1835.412549059909	3
0	5211	1836.559229765558	2
0	5218	1841.242224830128	1
0	5222	1846.631419495673	2
0	5225	1848.335334655393	1
0	5232	1851.367438316689	0
0	5239	1854.287085548746	1
0	5241	1854.465321331714	2
0	5242	1854.667694109267	1
0	5248	1857.979384635089	0
0	5272	1868.471389343346	1
0	5273	1868.800730777849	0
0	5284	1876.921180020085	1
0	5285	1877.415398398863	0
0	5297	1884.482432812544	1
0	5301	1891.306635096856	2
0	5302	1896.72606088753	1
0	5309	1897.986452194415	0
0	5315	1898.072219720862	1
0	5319	1899.295159885607	2
0	5320	1899.758371963807	1
0	5328	1900.208284224989	0
0	5335	1903.418118768857	1
0	5336	1903.963984342109	0
0	5367	1915.418625182969	1
0	5368	1916.318731768839	0
0	5386	1919.767951444044	1
0	5388	1920.255324473508	0
0	5402	1923.749282558407	1
0	5404	1924.356125380097	2
0	5409	1925.547014424517	3
0	5411	1927.403890264336	2
0	5419	1928.925978504878	1
0	5425	1932.939573435877	0
0	5450	1945.026611367719	1
0	5451	1946.290136041843	0
0	5464	1947.421963546412	1
0	5466	1950.336256960195	0
0	5477	1952.266205968693	1
0	5478	1953.561472191627	0
0	5486	1956.113890819577	1
0	5488	1957.422879013325	0
0	5499	1961.268461797783	1
0	5500	1961.99232217938	0
0	5506	1962.526691835345	1
0	5511	1964.706173233059	0
0	5521	1965.334645721673	1
0	5522	1966.427410655188	0
0	5538	1967.535011943113	1
0	5541	1969.258376023063	0
0	5564	1971.765544075522	1
0	5565	1972.181138464667	0
0	5576	1977.342729040585	1
0	5580	1978.205514949683	2
0	5581	1978.879248831865	1
0	5588	1980.373358712984	2
0	5592	1981.951530057799	1
0	5600	1984.994435060846	0
0	5607	1985.227770780517	1
0	5610	1985.630187081392	2
0	5611	1985.708371591078	1
0	5617	1985.813185845788	2
0	5619	1988.812531935875	1
0	5625	1990.120930520711	0
0	5638	1991.130246992184	1
0	5639	1991.692740947834	0
0	5648	1995.393744762389	1
0	5649	1995.632162854278	0
0	5693	2007.671536414078	1
0	5695	2010.141426475445	2
0	5696	2013.619310812863	1
0	5701	2015.353597519432	0
0	5708	2015.759423662298	1
0	5709	2015.881481975794	0
0	5713	2016.260576312083	1
0	5717	2021.818563450203	0
0	5735	2025.375314055742	1
0	5736	2025.611833942146	0
0	5758	2038.616480389501	1
0	5760	2040.039650172332	2
0	5761	2040.816899852589	1
0	5766	2041.808012839763	0
0	5775	2043.841164943389	1
0	5778	2043.914831768319	0
0	5782	2044.868794239314	1
0	5784	2045.906943583655	2
0	5787	2047.400901086348	1
0	5791	2047.932895571195	2
0	5794	2049.413995383686	1
0	5799	2051.799483645978	0
0	5812	2054.366673682751	1
0	5813	2054.39152400639	0
0	5830	2058.814307315708	1
0	5834	2060.527410157948	2
0	5835	2061.894491557997	1
0	5842	2065.870820061672	2
0	5844	2066.161292053473	3
0	5845	2066.758179274963	2
0	5851	2067.009586077649	3
0	5854	2068.156167398809	4
0	5855	2068.635386042278	3
0	5862	2069.560937081518	4
0	5864	2071.085868781662	5
0	5865	2071.419084683289	4
0	5870	2072.303320013982	3
0	5876	2074.540710613424	4
0	5879	2074.688401733485	3
0	5883	2074.786569997025	4
0	5887	2076.773691793111	5
0	5891	2077.785398177251	6
0	5892	2077.974807554792	5
0	5898	2079.947246597661	4
0	5903	2080.909323694934	3
0	5908	2081.933971278147	2
0	5923	2085.086512788031	3
0	5924	2085.512109976473	2
0	5930	2087.767060451663	1
0	5935	2090.04219512814	0
0	5941	2090.288717451395	1
0	5943	2092.163246813731	2
0	5944	2092.202974792709	1
0	5949	2092.937986632173	0
0	5979	2100.535622639362	1
0	5980	2100.698077417741	0
0	5986	2101.343313516902	1
0	5987	2101.945225436815	0
0	6003	2102.51339688355	1
0	6006	2103.375232059355	2
0	6011	2104.483930049768	1
0	6018	2105.191918624098	2
0	6021	2106.411976188971	3
0	6023	2107.10189195845	4
0	6024	2111.397918054313	3
0	6031	2113.48202050883	4
0	6038	2116.400094519852	3
0	6045	2117.214102800009	4
0	6046	2117.456726115518	3
0	6052	2118.375563690952	2
0	6058	2119.034433636252	3
0	6060	2119.551113854184	4
0	6066	2123.347894538621	3
0	6071	2123.660375393022	2
0	6076	2124.004202765155	1
0	6082	2125.482005148424	2
0	6084	2125.492289029729	3
0	6086	2127.337311341887	4
0	6090	2127.950726509796	5
0	6096	2128.767334879229	6
0	6104	2131.102643575724	7
0	6108	2137.50534194018	8
0	6109	2139.432473977591	7
0	6115	2142.169968549302	6
0	6122	2143.065212957921	5
0	6129	2143.646934287353	6
0	6130	2145.213410276322	5
0	6136	2146.086365195012	4
0	6143	2147.410763548304	3
0	6149	2149.361273842374	2
0	6155	2149.953993029039	3
0	6157	2150.189942447898	4
0	6158	2150.450706816201	3
0	6164	2150.61200920605	4
0	6166	2150.910513582544	3
0	6171	2151.463083663961	2
0	6175	2151.589544400286	3
0	6180	2153.631486827119	2
0	6186	2155.515251442979	3
0	6192	2156.933596974546	4
0	6194	2157.694454658417	3
0	6200	2158.487218773817	4
0	6203	2160.641405209152	5
0	6204	2160.69508029103	4
0	6211	2176.240427597796	3
0	6220	2178.35074876946	4
0	6221	2178.501960745691	3
0	6227	2179.328270172021	4
0	6229	2180.002185936749	5
0	6231	2180.221031046225	6
0	6232	2184.730581688002	5
0	6244	2189.045001940104	6
0	6245	2189.639845715412	5
0	6250	2190.165113262877	4
0	6257	2193.919155753194	3
0	6263	2195.353325921641	4
0	6265	2195.360277098661	5
0	6268	2198.968172783282	6
0	6275	2202.017575209299	5
0	6281	2202.158456882913	6
0	6286	2207.646710908898	7
0	6290	2208.258831965345	8
0	6291	2208.494776304667	7
0	6298	2212.231335491021	6
0	6305	2214.258092525739	7
0	6306	2214.894172159937	6
0	6312	2216.422327227833	5
0	6321	2220.607964721859	6
0	6322	2222.46687789883	5
0	6330	2225.737098280866	6
0	6331	2228.733053250602	5
0	6342	2230.301611229179	6
0	6343	2230.951364158182	5
0	6349	2233.007445608822	4
0	6360	2235.300573093674	5
0	6362	2240.56703900128	6
0	6364	2240.866285904601	7
0	6366	2241.469774231455	8
0	6368	2242.658754073077	9
0	6371	2244.5516519742	8
0	6376	2245.704506646556	7
0	6382	2246.208556537622	8
0	6386	2248.200501060383	7
0	6392	2249.853362595874	8
0	6394	2250.227750639074	9
0	6395	2250.42103643892	8
0	6400	2252.493968166677	7
0	6408	2256.099780046515	8
0	6411	2258.081798765938	7
0	6419	2258.793208003389	8
0	6421	2262.180785449338	7
0	6428	2262.98313811171	8
0	6430	2263.108146283354	9
0	6431	2263.195853067534	8
0	6436	2263.422295485563	7
0	6442	2263.904701540794	8
0	6447	2264.108058495083	9
0	6448	2264.61888616296	8
0	6454	2265.768785694363	9
0	6457	2270.861287760983	8
0	6462	2272.941110275681	7
0	6467	2273.558995138794	6
0	6475	2275.985941043956	7
0	6476	2277.233184143798	6
0	6486	2285.567090140312	5
0	6491	2285.980173109873	4
0	6496	2290.015482852435	3
0	6503	2291.152263510254	2
0	6511	2293.407158318834	3
0	6518	2297.478886191598	4
0	6522	2298.27578971142	3
0	6528	2299.064619408375	2
0	6535	2299.415548834838	3
0	6536	2302.165650771868	2
0	6541	2304.935471568291	1
0	6546	2305.656031541352	0
0	6550	2306.044163501869	1
0	6553	2307.721300207501	0
0	6566	2313.920743693314	1
0	6568	2314.87240611062	2
0	6570	2316.139005226612	3
0	6574	2319.178259536258	4
0	6577	2319.449496818787	3
0	6583	2322.225260926366	2
0	6589	2323.615892170081	3
0	6591	2323.838135296125	4
0	6592	2323.908092604847	3
0	6598	2325.454629940478	2
0	6604	2326.857162200825	1
0	6610	2327.830674678369	2
0	6614	2329.492584906012	3
0	6615	2330.393894532064	2
0	6622	2333.930133409686	1
0	6632	2336.2479988729	2
0	6633	2336.637373468176	1
0	6638	2337.470962105617	0
0	6650	2339.338004166819	1
0	6653	2340.260625395363	2
0	6655	2340.522056748022	3
0	6657	2340.649173539428	4
0	6659	2343.770584912224	5
0	6660	2344.495492192586	4
0	6666	2347.162941698064	3
0	6672	2347.974684011378	4
0	6674	2351.654201000364	3
0	6679	2353.495179565907	2
0	6685	2356.385200271269	1
0	6695	2358.402541911529	0
0	6708	2363.837378222777	1
0	6710	2364.22791314095	2
0	6712	2367.02263132729	3
0	6715	2368.825275607661	2
0	6723	2369.992405394673	1
0	6728	2370.192377329192	0
0	6745	2374.331035503059	1
0	6747	2376.267412994321	2
0	6750	2378.300069896162	1
0	6758	2378.935671289707	2
0	6760	2379.118519981637	3
0	6761	2380.560655476989	2
0	6766	2380.704986606658	1
0	6770	2383.754820862442	2
0	6772	2384.177358744506	3
0	6775	2384.982438863369	2
0	6783	2388.893105126133	3
0	6786	2390.318498611471	2
0	6791	2391.187915132903	1
0	6797	2391.674129108287	2
0	6803	2392.841126825997	1
0	6811	2394.202120005094	2
0	6812	2394.320366769708	1
0	6818	2396.675791768779	0
0	6846	2407.067982863262	1
0	6847	2408.135808655205	0
0	6859	2412.144227621477	1
0	6861	2412.529506603087	2
0	6863	2412.686736490188	3
0	6866	2415.899191864506	2
0	6871	2416.03912697106	1
0	6877	2416.682127216469	2
0	6881	2417.679616861305	3
0	6882	2420.158128981602	2
0	6889	2422.143179559995	3
0	6890	2422.820815583631	2
0	6896	2423.264767195734	1
0	6902	2425.629652842238	0
0	6914	2430.304324587745	1
0	6918	2431.871528498157	2
0	6920	2433.208542258743	1
0	6927	2433.642606872169	2
0	6930	2434.058185133816	1
0	6940	2440.01165343453	0
0	6959	2445.657648991243	1
0	6961	2450.257035684424	2
0	6962	2451.687326672398	1
0	6968	2452.3179521978	2
0	6972	2455.311794275754	1
0	6978	2455.470993365786	2
0	6979	2455.966147834871	1
0	6986	2456.10508406862	2
0	6987	2456.26303562284	1
0	6994	2458.062207008568	2
0	7001	2461.744958726615	3
0	7002	2462.336119231504	2
0	7010	2465.010578108428	1
0	7016	2465.873959405041	0
0	7041	2476.232207134199	1
0	7044	2481.734814116544	0
0	7056	2484.708241159982	1
0	7058	2484.783806824584	2
0	7060	2485.102261584917	3
0	7062	2487.567404349123	4
0	7066	2492.115723973888	5
0	7067	2493.327083058712	4
0	7074	2494.167347529877	5
0	7079	2496.806599112077	6
0	7081	2498.52351955388	7
0	7082	2500.435048693201	6
0	7087	2502.200410943735	5
0	7093	2502.226007761843	6
0	7097	2507.407285990316	5
0	7104	2510.753931938869	6
0	7108	2512.511823872335	7
0	7110	2513.19679843409	8
0	7114	2515.265475321157	9
0	7115	2515.681958629219	8
0	7122	2516.711862044387	9
0	7124	2517.948098176881	10
0	7125	2520.092218191258	9
0	7133	2525.967003102129	8
0	7138	2529.883472053701	7
0	7146	2533.687331196299	6
0	7154	2533.822577692682	7
0	7155	2536.619400807835	6
0	7161	2538.00020108906	7
0	7167	2546.092959156979	8
0	7172	2552.004975674015	7
0	7180	2555.982588759249	6
0	7186	2556.054855422624	7
0	7187	2556.722760063091	6
0	7192	2557.963344398825	5
0	7200	2567.090903510417	6
0	7201	2568.314697465477	5
0	7206	2568.687775698141	4
0	7212	2570.869337088623	3
0	7219	2573.377684442348	2
0	7224	2573.803678840893	1
0	7234	2578.664969344676	2
0	7236	2578.938047678778	3
0	7237	2580.201522975328	2
0	7242	2580.957269392358	1
0	7250	2582.172765379349	2
0	7251	2583.588264051101	1
0	7256	2585.205997808787	0
0	7295	2597.968066734447	1
0	7298	2601.300101357551	0
0	7315	2602.890323956526	1
0	7317	2603.003051258294	2
0	7319	2604.233631133999	1
0	7325	2604.952607085705	0
0	7348	2610.212651693406	1
0	7350	2610.921001990058	2
0	7351	2612.492575007227	1
0	7356	2612.496954564783	0
0	7362	2613.452669217202	1
0	7364	2613.563574825139	2
0	7365	2613.839973085712	1
0	7371	2615.618188730553	2
0	7373	2616.350389186941	1
0	7380	2618.147618242733	0
0	7401	2622.959603263936	1
0	7404	2623.705418404935	0
0	7410	2625.333358232406	1
0	7411	2625.435049556003	0
0	7441	2633.939007979281	1
0	7442	2636.219288730578	0
0	7492	2656.835861555045	1
0	7493	2656.953281581251	0
0	7518	2666.046397459249	1
0	7520	2666.993940816889	2
0	7522	2668.797447429336	3
0	7526	2672.804868194082	4
0	7530	2675.282072682465	5
0	7531	2676.320431889499	4
0	7536	2678.077543119044	3
0	7546	2680.127146521758	4
0	7547	2682.907406895539	3
0	7553	2683.929716891158	4
0	7558	2685.389639243578	3
0	7564	2685.912558116302	4
0	7566	2689.603012712938	3
0	7574	2691.471747582823	2
0	7583	2695.617904640523	3
0	7584	2695.634296829283	2
0	7589	2695.66254778814	1
0	7598	2698.211326034278	0
0	7622	2705.909802623835	1
0	7624	2706.308566377475	2
0	7626	2709.540710599178	1
0	7632	2709.681058637423	0
0	7639	2713.547778879466	1
0	7640	2713.871921385856	0
0	7655	2718.886762807585	1
0	7656	2721.115641800304	0
0	7668	2723.641044604003	1
0	7670	2724.399236314599	2
0	7672	2725.097493857569	3
0	7674	2725.725376440832	4
0	7676	2727.402680553492	5
0	7678	2727.45759358907	6
0	7679	2729.116746230155	5
0	7685	2729.736822963128	4
0	7696	2732.746421475816	3
0	7703	2735.664837537754	4
0	7705	2738.028171644619	5
0	7709	2739.971557674117	6
0	7710	2740.031887524571	5
0	7716	2741.578106236198	4
0	7721	2741.862621459254	3
0	7726	2742.375750990191	2
0	7733	2743.901412359693	3
0	7735	2744.282054224	4
0	7737	2746.566423639006	3
0	7742	2747.846678278623	2
0	7748	2748.317079175727	3
0	7754	2751.68729242021	2
0	7761	2752.649062871469	1
0	7767	2753.218742560581	0
0	7834	2791.628421980112	1
0	7837	2794.00310050696	0
0	7844	2794.896876624969	1
0	7845	2795.408503793999	0
0	7851	2795.748355311723	1
0	7855	2797.583053797161	2
0	7856	2799.053605604594	1
0	7864	2801.873898368604	0
0	7886	2805.073244021602	1
0	7892	2809.656027388425	2
0	7894	2812.247039621184	3
0	7895	2812.712396445293	2
0	7901	2813.60586843027	1
0	7906	2814.137200589998	0
0	7941	2826.408031274348	1
0	7947	2829.124784515874	2
0	7949	2829.157253045283	3
0	7950	2829.75729893675	2
0	7956	2830.908760069726	3
0	7958	2831.344890294398	2
0	7965	2831.726727568522	1
0	7972	2833.83670440175	2
0	7974	2835.021632085823	1
0	7979	2835.453320794827	0
0	7989	2842.914079610318	1
0	7990	2843.158499882367	0
0	8009	2846.66234721415	1
0	8012	2849.329855549637	0
0	8021	2849.944978669962	1
0	8022	2850.071029153011	0
0	8029	2850.444328695772	1
0	8031	2850.788941474895	2
0	8033	2850.879055696743	3
0	8035	2852.874026172806	4
0	8037	2857.944093621351	3
0	8043	2858.429009011554	4
0	8045	2859.734288631602	3
0	8050	2859.777542731999	2
0	8057	2860.370977079472	3
0	8058	2861.141410776507	2
0	8063	2862.866725331516	1
0	8070	2869.316255811906	0
0	8086	2878.625172112783	1
0	8089	2879.054929835283	0
0	8098	2881.7468357474	1
0	8101	2882.485691375499	0
0	8108	2883.433840637821	1
0	8109	2885.471998718909	0
0	8118	2886.357993577287	1
0	8121	2887.658929488265	0
0	8142	2895.87099706946	1
0	8143	2896.196478281176	0
0	8152	2897.88620003573	1
0	8153	2898.799581479604	0
0	8176	2907.044831433028	1
0	8179	2908.878781559424	0
0	8196	2913.04905085837	1
0	8199	2916.146833220463	0
0	8215	2921.911824929905	1
0	8217	2925.859245998997	2
0	8223	2928.425331365742	3
0	8227	2930.614514225861	2
0	8233	2930.83177134004	3
0	8234	2931.239214434904	2
0	8244	2934.385085721385	3
0	8246	2934.757463432566	4
0	8248	2935.692016027103	5
0	8251	2943.0978976294	4
0	8258	2947.197990357948	5
0	8261	2950.083500030538	4
0	8266	2950.096070928493	3
0	8271	2950.197038240601	2
0	8278	2952.870233123636	1
0	8286	2958.886155015978	2
0	8288	2960.925435947562	3
0	8289	2962.657706017366	2
0	8295	2963.269422822218	3
0	8299	2963.559080452856	4
0	8301	2965.250592654293	3
0	8307	2966.453032734537	2
0	8312	2968.226507564913	1
0	8317	2968.820633534199	0
0	8325	2971.984826583568	1
0	8328	2972.323054676569	0
0	8364	2986.077760916932	1
0	8365	2987.147243466497	0
0	8383	2992.600100099629	1
0	8386	2993.331165757524	0
0	8411	3001.37550856829	1
0	8412	3001.704042716782	0
0	8428	3009.639988075416	1
0	8430	3010.611895058222	2
0	8432	3010.795590738575	3
0	8434	3011.09796401619	4
0	8439	3017.725520093561	3
0	8445	3020.464167891582	2
0	8452	3022.918651211405	3
0	8453	3024.334584167851	2
0	8459	3025.521937426765	1
0	8465	3025.9775859448	2
0	8466	3032.359655448061	1
0	8474	3035.824483093779	2
0	8476	3038.920370180815	3
0	8477	3039.996150236306	2
0	8482	3042.566752863196	1
0	8487	3043.095877112271	0
0	8491	3047.044552570033	1
0	8496	3055.840367182026	0
0	8503	3058.900784296769	1
0	8504	3059.295528591315	0
0	8535	3067.470844778349	1
0	8537	3069.250265354182	2
0	8538	3070.082825280547	1
0	8546	3072.24068268071	0
0	8562	3075.855223052686	1
0	8568	3077.675767172522	2
0	8569	3078.510497489864	1
0	8575	3078.980461757453	2
0	8576	3079.280236817638	1
0	8585	3080.740807100704	0
0	8610	3093.603946201985	1
0	8612	3094.008208863051	2
0	8613	3096.056520550028	1
0	8618	3097.56023993036	0
0	8625	3098.405836712745	1
0	8627	3099.076381003311	0
0	8634	3100.249145569914	1
0	8636	3101.102714026926	2
0	8638	3102.230579396362	1
0	8643	3102.500458336127	0
0	8654	3103.401655301714	1
0	8658	3105.03662358581	2
0	8661	3111.38765278242	1
0	8667	3111.675256918204	2
0	8669	3114.423986007216	3
0	8672	3115.535023344198	4
0	8674	3115.633881130567	5
0	8675	3116.838941412374	4
0	8683	3120.804015607284	3
0	8694	3130.697430250688	4
0	8697	3131.789595725219	3
0	8703	3135.493064791225	2
0	8711	3136.022682853693	3
0	8716	3137.725945034174	2
0	8724	3138.694454578925	3
0	8726	3139.335922744392	4
0	8728	3141.884643351217	3
0	8735	3144.646971542914	4
0	8737	3145.836771404075	5
0	8738	3146.585730368952	4
0	8745	3147.525983035071	3
0	8752	3150.379190983156	2
0	8758	3152.919390134523	3
0	8761	3157.718208573403	2
0	8766	3158.068814893088	1
0	8772	3160.1183651915	0
0	8794	3165.762112781408	1
0	8795	3165.813044693841	0
0	8813	3173.252520219246	1
0	8818	3181.053076322163	0
0	8832	3184.143626269149	1
0	8836	3186.34383209691	2
0	8837	3187.251672454519	1
0	8842	3187.77839862727	0
0	8853	3189.918415366882	1
0	8856	3196.522598142368	0
0	8867	3196.815549177026	1
0	8869	3197.057222163565	2
0	8871	3197.548776053369	3
0	8876	3202.62333831322	4
0	8877	3203.222340738539	3
0	8886	3205.622198415389	4
0	8888	3206.540958008801	5
0	8892	3207.892823013053	6
0	8896	3208.357563075233	7
0	8898	3208.359955498635	8
0	8903	3218.248299432997	7
0	8911	3222.895183028019	6
0	8918	3223.80123726468	7
0	8923	3226.638277227325	6
0	8928	3228.88601705194	5
0	8933	3229.069264453125	4
0	8937	3230.851631048255	5
0	8940	3232.519830156973	4
0	8944	3234.459445777048	5
0	8947	3237.927482356677	4
0	8952	3243.064689131003	3
0	8958	3245.388023974976	4
0	8959	3245.403062019969	3
0	8968	3248.616229852044	2
0	8975	3249.362140682675	3
0	8977	3250.086973058045	4
0	8978	3250.366535833468	3
0	8984	3251.481197814698	4
0	8986	3251.876900717867	5
0	8987	3252.706785810793	4
0	8992	3252.818177905001	3
0	8998	3254.694359413355	4
0	8999	3256.888219102566	3
0	9004	3261.041957517254	2
0	9012	3262.333198561238	3
0	9014	3262.584249455463	2
0	9020	3263.710688311691	1
0	9026	3264.322433766556	2
0	9027	3264.528631763642	1
0	9033	3266.703258835718	2
0	9034	3267.214511954133	1
0	9040	3267.58167947657	2
0	9041	3268.132911910875	1
0	9049	3272.029338470141	2
0	9050	3273.775186549999	1
0	9054	3274.002288404218	2
0	9059	3276.283267766897	1
0	9063	3276.548183534282	2
0	9065	3276.751361595188	3
0	9069	3279.500953300245	2
0	9076	3283.275388515218	3
0	9078	3284.293281675754	4
0	9081	3285.77716751306	3
0	9086	3288.38770321437	2
0	9094	3291.260982869811	3
0	9095	3291.739679562394	2
0	9101	3291.957825145606	3
0	9105	3292.476583766369	2
0	9111	3292.935077184808	3
0	9114	3297.077163189354	2
0	9119	3297.213940409921	1
0	9123	3297.295619051382	2
0	9126	3298.296758434484	1
0	9131	3299.469977879035	0
0	9150	3304.094954042225	1
0	9152	3304.568512803377	2
0	9158	3307.660673808543	1
0	9165	3312.174131488346	0
0	9175	3317.591863830939	1
0	9177	3319.804276385918	2
0	9180	3322.094304654724	1
0	9189	3322.422870707089	0
0	9200	3323.721912159635	1
0	9202	3324.98038149207	2
0	9206	3330.125451222658	3
0	9208	3330.365553953455	4
0	9209	3330.577821824158	3
0	9215	3332.295017287513	4
0	9217	3332.334994007911	5
0	9222	3334.786101024149	6
0	9223	3335.29838987561	5
0	9231	3337.647269091445	4
0	9237	3337.915436939708	5
0	9238	3339.050790558568	4
0	9243	3339.515750522819	3
0	9250	3342.46552851635	4
0	9253	3348.181125554451	3
0	9263	3351.147274764643	2
0	9268	3352.434135384318	1
0	9274	3355.274751719653	0
0	9282	3357.05972209447	1
0	9284	3358.07709832179	2
0	9285	3359.179467123445	1
0	9292	3359.877986306309	0
0	9300	3360.80378356903	1
0	9302	3361.667138869061	2
0	9303	3363.150594926464	1
0	9309	3365.877819804959	0
0	9326	3368.640983743583	1
0	9327	3369.065847322047	0
0	9339	3370.92418698335	1
0	9340	3372.372192705209	0
0	9348	3374.161210058609	1
0	9351	3374.688299751908	0
0	9394	3389.465799636179	1
0	9399	3392.262259067061	0
0	9405	3392.704061903959	1
0	9407	3392.725239516565	2
0	9411	3394.029886157399	3
0	9419	3397.748206176427	4
0	9420	3397.883259870292	3
0	9426	3398.498714476192	4
0	9428	3399.963900430804	3
0	9437	3401.243715762176	4
0	9440	3401.917254174354	3
0	9448	3405.887124517198	2
0	9455	3406.998983188655	1
0	9461	3407.705477823295	2
0	9462	3408.697310652825	1
0	9469	3410.089737814954	0
0	9475	3414.10310221748	1
0	9481	3418.788585391063	2
0	9483	3418.981880514541	3
0	9484	3419.305104057516	2
0	9489	3422.918725599541	1
0	9496	3423.859562359899	2
0	9498	3424.35925104052	3
0	9499	3425.697370279044	2
0	9505	3426.961915953538	3
0	9506	3428.928216850021	2
0	9511	3429.729377414535	1
0	9517	3430.436184471076	2
0	9520	3430.936532561918	3
0	9521	3433.442184705927	2
0	9529	3437.055179827855	3
0	9531	3437.825398177727	4
0	9532	3440.501407050562	3
0	9538	3440.555216630993	4
0	9544	3445.583974251629	3
0	9549	3447.367197861871	2
0	9556	3448.205590540331	3
0	9558	3450.099174316363	2
0	9564	3450.505707299563	1
0	9570	3450.662313689787	2
0	9573	3454.620416505871	3
0	9574	3454.833754483986	2
0	9580	3454.978958014708	3
0	9581	3455.370215558342	2
0	9587	3456.254223360073	3
0	9589	3458.33758111727	2
0	9602	3459.953430699912	3
0	9604	3460.164203246658	4
0	9606	3462.455654400031	3
0	9612	3462.771680982199	4
0	9616	3466.107110890557	3
0	9621	3468.939632320743	2
0	9629	3470.137201151186	3
0	9630	3471.803903095277	2
0	9635	3472.65191590434	1
0	9641	3473.003158112416	2
0	9643	3474.234113925952	3
0	9646	3476.203918338352	2
0	9655	3479.862829069114	1
0	9662	3483.566581727503	2
0	9664	3484.025978031651	3
0	9666	3487.916071359746	4
0	9667	3488.287335370512	3
0	9672	3489.24498790496	2
0	9681	3492.021618326339	1
0	9686	3493.630695628396	0
0	9694	3496.812729789018	1
0	9695	3497.67833606959	0
0	9701	3498.518256138886	1
0	9702	3498.59409010528	0
0	9708	3499.305900351699	1
0	9710	3500.464532507239	2
0	9712	3501.013031204489	1
0	9718	3502.238382138312	2
0	9720	3503.987660984236	1
0	9725	3504.129117211288	0
0	9756	3518.786452518962	1
0	9758	3519.859392800689	2
0	9760	3521.006821795905	3
0	9761	3521.380181875214	2
0	9766	3521.941480817441	1
0	9771	3521.983666184523	0
0	9781	3523.999527104377	1
0	9785	3525.4263324339	2
0	9786	3526.738323216725	1
0	9791	3527.422651155521	0
0	9809	3531.971669671623	1
0	9813	3540.433180784093	0
0	9835	3552.468146248398	1
0	9838	3553.953721436191	0
0	9845	3555.522080856694	1
0	9846	3555.541977981938	0
0	9862	3557.341604549502	1
0	9870	3562.251829153392	0
0	9876	3562.930384203289	1
0	9877	3563.163818490787	0
0	9896	3566.24296417497	1
0	9899	3567.26609174728	0
0	9922	3575.900635945426	1
0	9924	3577.14400348111	2
0	9928	3579.800669397772	3
0	9929	3579.855831494014	2
0	9935	3580.707768325149	1
0	9942	3582.293828019023	2
0	9947	3585.056996637147	1
0	9953	3585.198737438828	2
0	9956	3587.089381628955	3
0	9958	3587.319296888119	4
0	9961	3589.542708837142	3
0	9967	3592.061951211546	2
0	9973	3593.842178363062	1
0	9979	3593.864691366313	2
0	9981	3594.370456404342	3
0	9983	3594.923144334224	4
0	9984	3595.308644353438	3
0	9993	3597.419268308917	4
0	9994	3599.14600662391	3
0	9999	3599.280424799371	2
0	10003	3599.328737070994	3
0	10009	3605.070593804529	4
0	10013	3607.809464029878	3
0	10020	3609.883264680626	4
0	10023	3613.37989687588	5
0	10025	3614.418642971116	6
0	10029	3616.584862294864	7
0	10030	3617.246126203352	6
0	10035	3618.597892236307	5
0	10040	3619.592345001127	4
0	10047	3621.25383485379	3
0	10055	3623.287562131648	2
0	10062	3627.594519083187	1
0	10068	3629.041575740406	2
0	10069	3629.252542137332	1
0	10077	3634.738750046827	0
0	10097	3638.772038221517	1
0	10103	3643.423250980053	2
0	10110	3649.778124821138	1
0	10118	3650.939814275814	0
0	10126	3652.912786911807	1
0	10127	3657.247756211396	0
0	10138	3658.177495548854	1
0	10139	3658.729455040081	0
0	10174	3671.867871792551	1
0	10180	3674.111567677949	2
0	10181	3674.34400856888	1
0	10186	3675.028051005343	0
0	10192	3676.79166002651	1
0	10197	3678.749048449067	2
0	10202	3683.204640389562	1
0	10208	3683.740376192349	0
0	10225	3686.637397975741	1
0	10228	3690.038775977884	0
0	10235	3692.751836890441	1
0	10236	3696.721615928318	0
0	10242	3697.593983943914	1
0	10243	3697.957666596419	0
0	10252	3698.599373518655	1
0	10259	3706.593127806922	2
0	10262	3708.477356645483	3
0	10263	3712.88913255609	2
0	10268	3713.75945475609	1
0	10275	3714.247011875316	2
0	10279	3715.501328151768	3
0	10281	3718.606951976499	4
0	10282	3719.41484040589	3
0	10288	3719.824642711664	2
0	10293	3723.211915092465	1
0	10300	3725.55756308708	0
0	10328	3739.206274288773	1
0	10330	3739.67240771882	2
0	10332	3739.782361998629	3
0	10333	3743.400795614589	2
0	10338	3743.529705001645	1
0	10347	3745.045872584828	2
0	10349	3745.883711453154	3
0	10350	3745.930428221225	2
0	10356	3747.2253558053	1
0	10361	3747.617572468918	0
0	10381	3752.247660376394	1
0	10383	3752.322784482294	2
0	10384	3752.571299036509	1
0	10390	3752.87730595061	2
0	10391	3753.352608233365	1
0	10396	3753.413558035155	0
0	10402	3756.224584363875	1
0	10404	3757.075753741133	2
0	10410	3759.134103944124	1
0	10417	3765.159689116247	0
0	10432	3771.753953726202	1
0	10439	3776.81025194693	0
0	10445	3778.200676825576	1
0	10446	3778.243142873772	0
0	10462	3785.067441109396	1
0	10464	3785.911274410685	2
0	10468	3787.594615253434	3
0	10469	3788.551031844276	2
0	10476	3790.417419281925	3
0	10480	3791.45094067163	4
0	10486	3796.487267717418	5
0	10487	3798.810063796493	4
0	10493	3800.019657689376	3
0	10501	3803.034260773862	2
0	10509	3806.529426276316	1
0	10521	3811.533255972676	0
0	10537	3816.555450021789	1
0	10542	3818.907236729839	2
0	10543	3819.801688277855	1
0	10549	3821.220466296082	0
0	10593	3838.94423925195	1
0	10595	3841.044496192584	2
0	10598	3843.480976845838	1
0	10607	3847.907051747911	2
0	10608	3849.898704611735	1
0	10613	3850.238378494874	0
0	10625	3851.988251217749	1
0	10627	3852.116497341027	0
0	10659	3865.416588976491	1
0	10661	3869.741871059196	2
0	10663	3869.847663477826	3
0	10669	3878.473481234757	4
0	10671	3880.116472306647	5
0	10672	3881.196562818132	4
0	10678	3883.114111511133	5
0	10680	3886.647806880413	4
0	10686	3888.799282371147	3
0	10691	3888.910864401476	2
0	10696	3888.982079967899	1
0	10703	3891.009284929159	0
0	10711	3894.221240263885	1
0	10716	3896.515628610258	2
0	10717	3897.131090183855	1
0	10730	3900.830898641657	0
0	10737	3901.321637914636	1
0	10739	3903.478706759078	2
0	10741	3903.866313639452	3
0	10743	3905.527164831854	2
0	10748	3905.551812883403	1
0	10754	3906.673873646891	0
0	10769	3911.759459010457	1
0	10770	3911.794440521647	0
0	10778	3913.273508277088	1
0	10779	3913.581151967945	0
0	10791	3914.60187429898	1
0	10792	3915.681876297732	0
0	10800	3915.954202259993	1
0	10802	3917.138819277577	0
0	10808	3917.187017760154	1
0	10812	3923.066340420702	0
0	10820	3926.184175975298	1
0	10823	3929.336763016799	0
0	10846	3933.571718514916	1
0	10851	3935.766806030515	0
0	10887	3940.441058756058	1
0	10888	3941.181734308274	0
0	10894	3941.558506221086	1
0	10896	3942.613273502615	0
0	10940	3960.420639273163	1
0	10941	3961.75417953272	0
0	10955	3966.727193009727	1
0	10957	3971.533294700475	2
0	10958	3971.587285228184	1
0	10966	3978.285878009744	0
0	10981	3986.569084337007	1
0	10982	3988.021120284782	0
0	10991	3988.575614611485	1
0	10997	4009.298702666202	0
0	11005	4012.428342971708	1
0	11007	4014.808307676969	2
0	11008	4016.594516456835	1
0	11015	4017.568135861209	0
0	11021	4018.12251157391	1
0	11023	4019.641899648513	2
0	11024	4019.677169513655	1
0	11029	4020.032391184701	0
0	11037	4022.919550193715	1
0	11038	4023.214035034143	0
0	11042	4024.020080101905	1
0	11048	4026.463128535068	2
0	11051	4026.634229287531	1
0	11061	4030.055513670418	2
0	11062	4030.832610922241	1
0	11071	4032.852280458952	2
0	11072	4034.233838028768	1
0	11077	4035.498559907705	0
0	11081	4036.151997850617	1
0	11083	4036.576860866642	2
0	11086	4038.298828247042	1
0	11092	4042.543778410563	2
0	11095	4044.190728161686	1
0	11103	4045.512929364975	2
0	11105	4045.687928635307	3
0	11107	4046.021627684615	4
0	11110	4046.785489302137	5
0	11111	4047.564215779578	4
0	11117	4048.883227438056	3
0	11122	4051.045452326549	2
0	11128	4052.510743299323	1
0	11134	4053.575661217384	2
0	11135	4054.073394915	1
0	11140	4060.01162671242	0
0	11158	4063.673848537704	1
0	11161	4065.504950521718	0
0	11167	4065.765936694043	1
0	11169	4066.560650044179	2
0	11171	4067.062343209272	3
0	11174	4068.01502775554	4
0	11177	4074.633044786357	3
0	11183	4075.723655036656	2
0	11189	4076.711711865263	1
0	11194	4078.824455016718	0
0	11206	4082.672688702027	1
0	11207	4082.763082957913	0
0	11236	4092.661891295831	1
0	11239	4093.745030870385	0
0	11262	4099.111398528342	1
0	11267	4105.829154508698	0
0	11273	4106.864355764034	1
0	11277	4108.186767506849	0
0	11292	4113.995072827351	1
0	11295	4114.426232699244	0
0	11301	4114.759947105347	1
0	11304	4115.097850975435	2
0	11306	4115.759076544696	3
0	11307	4115.841024416381	2
0	11314	4116.47013496078	3
0	11315	4117.828607321161	2
0	11321	4120.173828203389	1
0	11327	4122.130679006204	0
0	11343	4125.069781522505	1
0	11346	4128.386536197541	0
0	11374	4135.633599348669	1
0	11375	4135.969384967679	0
0	11395	4144.566473000133	1
0	11397	4145.517185818143	2
0	11399	4146.711549091425	3
0	11402	4148.505721382414	2
0	11410	4149.427152744801	1
0	11416	4150.209995066518	0
0	11423	4153.382001954989	1
0	11425	4153.468048816269	2
0	11426	4155.781640911246	1
0	11431	4156.212091373852	0
0	11438	4156.272153542363	1
0	11440	4157.748917194873	0
0	11456	4164.723319651584	1
0	11460	4167.169467951574	2
0	11461	4169.465387141751	1
0	11467	4169.79504187645	2
0	11468	4169.995457262543	1
0	11474	4170.990217827067	2
0	11481	4173.941692412599	3
0	11482	4175.674905927562	2
0	11487	4175.693309105875	1
0	11492	4176.742014280348	0
0	11496	4177.018429920091	1
0	11498	4178.464284560088	2
0	11500	4178.621532960252	3
0	11503	4181.469696331256	2
0	11510	4183.014290368572	3
0	11512	4183.037175286554	4
0	11513	4183.45625807029	3
0	11520	4184.868885722021	2
0	11527	4185.003318415562	3
0	11528	4185.226301721826	2
0	11533	4186.398842609641	1
0	11537	4186.746638591792	2
0	11542	4188.509575501217	1
0	11549	4189.038163608617	2
0	11550	4191.008224694204	1
0	11555	4192.328084427525	0
0	11561	4192.828730161498	1
0	11563	4195.233578052866	2
0	11565	4196.207703092889	3
0	11566	4196.575656152848	2
0	11570	4196.619098754945	3
0	11573	4197.570547669838	2
0	11582	4199.991741118882	3
0	11584	4201.236797753518	2
0	11589	4201.604184118304	1
0	11595	4202.502311653286	2
0	11598	4204.697278096748	1
0	11603	4204.787383680092	0
0	11612	4210.439558918555	1
0	11614	4211.002869059162	2
0	11615	4211.129478312621	1
0	11620	4211.183296214149	0
0	11645	4220.314581699573	1
0	11649	4223.26674035741	2
0	11651	4226.946803622402	3
0	11652	4227.29629462498	2
0	11660	4228.995018724392	1
0	11671	4232.684096356749	2
0	11675	4234.473273977961	3
0	11677	4236.706213244394	4
0	11679	4237.241222468328	5
0	11682	4237.803613682472	4
0	11687	4238.074801235866	3
0	11693	4238.552087697972	4
0	11695	4238.619778677044	5
0	11696	4240.7693020234	4
0	11701	4244.741735648541	3
0	11705	4245.38095381727	4
0	11711	4245.948007845072	5
0	11715	4247.019028974822	6
0	11717	4251.668382303925	7
0	11719	4251.854702278363	8
0	11720	4258.446264485522	7
0	11727	4260.133680147978	6
0	11735	4261.707296426902	7
0	11736	4270.5226243411	6
0	11743	4272.10137207348	5
0	11748	4272.139909227582	4
0	11756	4273.34451881718	5
0	11758	4276.531518195398	6
0	11759	4281.013973943995	5
0	11766	4285.607532965614	6
0	11769	4285.812077373888	5
0	11776	4288.511380479149	4
0	11782	4290.365346857964	3
0	11787	4292.632196955484	2
0	11792	4295.339558428547	1
0	11797	4297.60965910572	0
0	11805	4298.980250919668	1
0	11807	4299.337951022203	2
0	11813	4303.623006932591	3
0	11821	4312.147522160741	4
0	11823	4312.637645224727	5
0	11825	4313.835295972252	6
0	11828	4314.761083946494	5
0	11834	4315.001403767068	6
0	11840	4317.751685487674	7
0	11841	4317.855965131215	6
0	11846	4318.165947879066	5
0	11853	4319.822417770946	4
0	11861	4321.093327945331	5
0	11864	4322.998218386449	4
0	11870	4323.29548732471	5
0	11871	4324.095333862972	4
0	11878	4327.718997853457	3
0	11883	4329.009123725217	2
0	11891	4331.113797529905	3
0	11892	4331.796738650154	2
0	11898	4333.62309775496	3
0	11901	4334.839925381403	2
0	11906	4336.311079597258	1
0	11910	4337.184124345556	2
0	11913	4341.33270833425	1
0	11921	4343.507730458233	0
0	11955	4362.019071086482	1
0	11957	4363.105110307875	2
0	11958	4363.496859494489	1
0	11963	4363.573925894621	0
0	11976	4366.353758827918	1
0	11977	4367.392400828849	0
0	11987	4371.792907940444	1
0	11989	4373.180160494499	2
0	11992	4374.616225261701	1
0	11999	4377.937930272017	0
0	12005	4379.13237671325	1
0	12006	4380.57318501804	0
0	12022	4384.342392188437	1
0	12025	4389.021954346973	0
0	12054	4402.262149931828	1
0	12058	4404.135569047336	2
0	12059	4404.606306838858	1
0	12067	4407.369323564991	2
0	12068	4407.378577277981	1
0	12074	4408.316326052047	0
0	12081	4408.844211467821	1
0	12082	4409.223217539235	0
0	12098	4413.36802738682	1
0	12099	4414.271060324691	0
0	12114	4421.610324943421	1
0	12116	4421.743385232523	0
0	12132	4425.837733404911	1
0	12140	4430.830842548043	2
0	12144	4432.031935786662	3
0	12146	4436.223432091659	4
0	12147	4436.929181365338	3
0	12152	4438.225695840639	2
0	12158	4440.167645189004	1
0	12165	4442.953482072322	2
0	12168	4444.856305606014	3
0	12170	4446.373435579875	4
0	12172	4449.888002711133	5
0	12174	4452.917255967272	6
0	12178	4456.455224475373	7
0	12180	4456.577398286531	8
0	12181	4456.648310973567	7
0	12192	4461.357463500097	6
0	12198	4461.581787974766	7
0	12200	4461.887645289334	8
0	12201	4462.33842989862	7
0	12208	4463.194620936091	8
0	12209	4464.584496086265	7
0	12215	4465.70059186139	8
0	12217	4465.71523196745	9
0	12218	4466.255469697244	8
0	12223	4466.554046238585	7
0	12231	4470.014946475363	8
0	12232	4471.335023351886	7
0	12243	4474.196610539367	8
0	12244	4474.850282353787	7
0	12250	4475.728729806948	8
0	12252	4477.781097626068	7
0	12260	4478.885489895422	8
0	12264	4480.471776724621	7
0	12269	4482.02290630975	6
0	12275	4484.576193267539	5
0	12282	4484.859819667828	6
0	12285	4485.065035006279	7
0	12286	4489.69240157475	6
0	12292	4490.661487334026	7
0	12299	4492.942573882291	8
0	12300	4495.907135116653	7
0	12305	4496.034189593827	6
0	12312	4500.256323118108	5
0	12317	4501.72331626844	4
0	12321	4501.790389394101	5
0	12323	4501.987608495099	6
0	12325	4503.512315495822	7
0	12329	4504.268493033714	8
0	12330	4504.299416593521	7
0	12336	4506.577788541696	8
0	12342	4508.56485143784	9
0	12343	4511.180245028086	8
0	12349	4513.408282346544	7
0	12354	4513.865618924176	6
0	12360	4514.505523522623	7
0	12363	4519.263640924991	6
0	12369	4519.749112179626	7
0	12371	4521.254911065059	6
0	12377	4522.528613156224	5
0	12383	4523.061173846282	6
0	12384	4523.738674840248	5
0	12389	4523.920297917207	4
0	12393	4524.043986207457	5
0	12395	4524.125229148201	6
0	12401	4526.982491868003	7
0	12402	4529.76940002364	6
0	12411	4531.225030905376	5
0	12416	4535.364975686136	4
0	12420	4536.209285861774	5
0	12423	4536.437199505071	4
0	12427	4536.442383574704	5
0	12431	4537.634736882216	4
0	12436	4537.645486300136	3
0	12445	4543.530007745717	4
0	12446	4545.326674665293	3
0	12455	4546.381126288652	2
0	12460	4546.63223051038	1
0	12468	4548.683202413411	0
0	12491	4554.079598087485	1
0	12492	4554.753226241729	0
0	12508	4559.479709694887	1
0	12510	4563.921600034606	2
0	12511	4564.299826846872	1
0	12516	4564.74197334163	0
0	12524	4566.109317499487	1
0	12525	4566.206211306674	0
0	12534	4567.63887049434	1
0	12537	4570.485997101938	0
0	12549	4576.318090834998	1
0	12552	4578.313058929653	0
0	12563	4579.760897392721	1
0	12565	4579.762872243025	2
0	12567	4580.545075956872	3
0	12569	4584.2272669773	4
0	12571	4584.499881054408	5
0	12577	4589.48554202657	6
0	12578	4590.258278195083	5
0	12584	4593.058806645472	4
0	12591	4594.035980829167	5
0	12592	4594.405838178036	4
0	12597	4595.005786471208	3
0	12603	4596.017413236861	2
0	12608	4596.463810126429	1
0	12616	4598.40532964644	2
0	12617	4598.619470249961	1
0	12623	4602.465087202757	0
0	12639	4607.22143987493	1
0	12640	4609.059119673356	0
0	12656	4612.186720274424	1
0	12660	4613.108502154831	2
0	12665	4615.516007298879	1
0	12671	4617.251294543966	0
0	12680	4618.748170219864	1
0	12681	4619.673263302549	0
0	12688	4621.017149437377	1
0	12689	4623.717608748701	0
0	12712	4635.543779540087	1
0	12714	4635.79711173879	2
0	12716	4637.575535752601	3
0	12721	4640.412020006535	2
0	12729	4641.753405851941	3
0	12730	4642.478940448037	2
0	12735	4644.453499964348	1
0	12741	4645.258351757974	0
0	12757	4647.301114351455	1
0	12759	4649.791150665952	2
0	12761	4649.81509141253	3
0	12763	4650.1225530963	4
0	12768	4652.586911904501	3
0	12775	4654.648627405774	2
0	12779	4657.256335202246	3
0	12781	4658.000495851869	4
0	12783	4659.268550929968	5
0	12785	4659.661266510846	6
0	12789	4660.541257867591	5
0	12795	4661.207397399948	6
0	12798	4662.352352510128	7
0	12802	4663.371185064413	6
0	12807	4664.586966127748	5
0	12815	4666.303567967859	4
0	12826	4668.573272498252	3
0	12831	4669.202482861754	2
0	12837	4670.878456223832	1
0	12846	4673.385527553037	0
0	12852	4675.211560931015	1
0	12853	4675.837707847058	0
0	12885	4685.764808413195	1
0	12886	4685.875369123391	0
0	12893	4688.173803238729	1
0	12894	4689.263173577039	0
0	12909	4693.26429956554	1
0	12912	4693.433430446923	2
0	12919	4698.316294397308	1
0	12926	4701.724126589724	2
0	12927	4703.73934025727	1
0	12932	4704.105384466673	0
0	12954	4712.903199587089	1
0	12955	4713.3036483119	0
0	12968	4717.857087479189	1
0	12972	4720.628576571277	0
0	12990	4730.535249856663	1
0	12992	4730.725464772554	2
0	12993	4734.143289686607	1
0	13001	4736.561593958324	0
0	13015	4739.54192741732	1
0	13016	4740.707247280679	0
0	13025	4741.418160359301	1
0	13029	4747.245004717593	2
0	13030	4748.416317087609	1
0	13038	4749.451297244088	2
0	13039	4749.470732252981	1
0	13044	4749.982723631483	0
0	13050	4750.777843516011	1
0	13051	4752.554239822408	0
0	13058	4755.549514779128	1
0	13059	4755.821088794456	0
0	13069	4757.337735260353	1
0	13071	4758.201476673343	2
0	13072	4758.512650153754	1
0	13080	4758.953881488953	0
0	13104	4767.12452343886	1
0	13107	4771.714547608706	0
0	13119	4777.134121964884	1
0	13120	4781.358527338264	0
0	13134	4782.904054095161	1
0	13135	4785.793964495546	0
0	13143	4785.981197789618	1
0	13147	4787.321108955087	2
0	13148	4787.671271573629	1
0	13153	4787.730764148809	0
0	13160	4788.840891931862	1
0	13164	4789.073017165319	2
0	13166	4789.156654550723	3
0	13170	4789.51047087606	4
0	13171	4790.275886599293	3
0	13176	4791.634489041486	2
0	13188	4800.443404633288	3
0	13189	4800.617954142557	2
0	13198	4802.538473849437	3
0	13200	4802.882878798741	2
0	13205	4805.193462603919	1
0	13212	4806.224947502628	2
0	13214	4806.774032070113	3
0	13218	4809.82967430778	2
0	13224	4811.842807499493	3
0	13225	4812.819017911151	2
0	13231	4813.039261727585	3
0	13235	4814.488850508801	4
0	13240	4819.021420952499	3
0	13245	4819.706818231303	2
0	13252	4823.072251943533	1
0	13257	4823.132705715601	0
0	13263	4824.751572527821	1
0	13266	4826.189205442624	0
0	13272	4828.547364439659	1
0	13274	4830.197202459094	0
0	13296	4847.440517929871	1
0	13300	4850.518904085716	2
0	13302	4851.046618514387	1
0	13308	4853.052729946942	0
0	13331	4863.288974288367	1
0	13332	4865.493507859134	0
0	13346	4871.649381598207	1
0	13348	4873.62509475296	0
0	13354	4873.877985068566	1
0	13358	4874.904391469117	2
0	13360	4875.056001509962	3
0	13362	4875.370223318969	4
0	13363	4875.450464145482	3
0	13369	4878.762700215811	2
0	13374	4879.153122948766	1
0	13382	4880.426142921513	0
0	13414	4886.127036768519	1
0	13415	4886.909491761103	0
0	13422	4887.183315651074	1
0	13424	4888.267925762302	2
0	13426	4891.855274706929	3
0	13427	4893.635181713396	2
0	13436	4896.48859231263	3
0	13437	4897.045174796518	2
0	13442	4898.439342885531	1
0	13453	4903.36081646026	0
0	13462	4904.144273525609	1
0	13464	4904.228178117915	2
0	13467	4906.551957889901	1
0	13473	4906.630527096888	2
0	13475	4908.160233385256	1
0	13481	4908.47898094565	2
0	13484	4909.96358046751	1
0	13490	4910.403874115782	2
0	13493	4911.028282921845	1
0	13502	4913.975376513393	0
0	13527	4918.593295893163	1
0	13530	4919.997018375748	0
0	13545	4924.985894059773	1
0	13548	4928.839474781925	0
0	13562	4933.992530729685	1
0	13563	4934.496892798683	0
0	13600	4947.867659351653	1
0	13602	4949.869147649334	2
0	13604	4950.090269209947	3
0	13605	4950.806139489777	2
0	13614	4951.500934996484	3
0	13618	4954.774538152922	4
0	13621	4958.098076543665	3
0	13629	4959.889829363538	2
0	13638	4961.572786030895	3
0	13639	4961.748431729727	2
0	13645	4961.949958508598	3
0	13647	4962.235705515925	4
0	13653	4968.069121171713	3
0	13658	4969.405325077915	2
0	13663	4969.686322328948	1
0	13668	4975.011339288523	0
0	13676	4976.42934397641	1
0	13680	4977.23948622476	2
0	13682	4977.959391516301	3
0	13683	4978.115390254697	2
0	13691	4979.212147181732	1
0	13697	4980.325761875301	0
0	13709	4982.174367253925	1
0	13711	4983.429199595981	0
0	13717	4983.690526953696	1
0	13718	4984.440865449003	0
0	13726	4987.19638964312	1
0	13727	4987.267195334148	0
0	13734	4987.588235563532	1
0	13735	4988.180291883003	0
0	13788	5007.027790484826	1
0	13790	5008.579338630152	2
0	13791	5008.650357643553	1
0	13796	5009.048536077873	0
0	13809	5011.316299260569	1
0	13816	5016.336749762378	0
0	13823	5017.827064319699	1
0	13826	5020.268260838841	0
0	13840	5021.854996851148	1
0	13844	5023.511487330073	2
0	13845	5024.178196482092	1
0	13850	5024.735122289914	0
0	13885	5034.726289590477	1
0	13889	5038.71170786918	2
0	13890	5041.164970110476	1
0	13897	5042.744315768476	0
0	13909	5045.346316153818	1
0	13910	5047.165918486437	0
0	13922	5049.622208850334	1
0	13923	5049.632226155311	0
0	13932	5051.397401546985	1
0	13940	5056.357917642969	0
0	13950	5058.993576351234	1
0	13953	5059.850881925034	0
0	13974	5066.836898721749	1
0	13978	5068.918174958157	2
0	13981	5072.387736304428	1
0	13987	5073.016845861075	0
0	13998	5074.616825934127	1
0	14000	5075.23993803851	2
0	14011	5079.337591080293	3
0	14012	5079.403992170786	2
0	14020	5082.662507352989	1
0	14025	5082.942951865308	0
0	14044	5083.954333294819	1
0	14050	5088.436352471386	0
0	14075	5097.503409517221	1
0	14081	5099.030027824457	2
0	14082	5099.664031966359	1
0	14088	5101.486277681195	2
0	14089	5101.988691421134	1
0	14098	5104.228344549348	0
0	14113	5109.174580136584	1
0	14117	5111.291337197945	2
0	14123	5115.615788040898	3
0	14124	5118.372063239175	2
0	14130	5119.256734373955	1
0	14138	5119.79342420646	0
0	14144	5120.319109951239	1
0	14145	5120.381280386966	0
0	14156	5121.915864911156	1
0	14160	5125.198552336599	2
0	14164	5125.872806820859	1
0	14169	5126.351107150665	0
0	14173	5126.944780643745	1
0	14175	5131.05979691481	2
0	14180	5136.860580357991	1
0	14184	5137.123634942703	2
0	14186	5137.48409293546	3
0	14188	5137.661992023994	4
0	14190	5139.359505598092	5
0	14196	5141.092531126725	6
0	14199	5144.38130119162	5
0	14207	5145.325482193325	4
0	14212	5146.507150682647	3
0	14217	5147.304452733512	2
0	14224	5149.662217906474	1
0	14233	5152.435655085302	2
0	14234	5155.526899028826	1
0	14240	5157.204361610677	2
0	14241	5158.777559129147	1
0	14246	5159.059769778589	0
0	14250	5159.489927892498	1
0	14256	5159.929480762187	2
0	14257	5160.568966805326	1
0	14264	5168.027457622609	0
0	14268	5169.437017682179	1
0	14272	5170.478604929917	0
0	14288	5175.893579740198	1
0	14291	5176.924436866062	2
0	14295	5178.945900988891	3
0	14301	5180.783148730179	4
0	14305	5182.243520186893	5
0	14306	5183.249112981368	4
0	14312	5185.315662214206	3
0	14320	5189.271326382667	2
0	14327	5190.183811183548	3
0	14328	5190.381297877433	2
0	14341	5191.553665721571	3
0	14342	5195.612940959393	2
0	14347	5196.377517260791	1
0	14351	5198.997434669665	2
0	14355	5205.158559462054	3
0	14359	5206.598526859676	4
0	14361	5209.930722029002	5
0	14366	5211.682305358235	4
0	14372	5212.854199869705	5
0	14374	5214.219819078193	6
0	14381	5218.821071517034	7
0	14385	5219.835011985609	8
0	14389	5221.683879995279	7
0	14394	5224.255850824217	6
0	14406	5226.939553804543	7
0	14409	5230.194097745864	6
0	14416	5232.028017590054	7
0	14417	5232.259574564118	6
0	14422	5232.334665636293	5
0	14430	5235.338732882209	6
0	14432	5235.956712676956	7
0	14433	5237.709809188802	6
0	14438	5240.184343700154	5
0	14443	5241.491757821903	4
0	14449	5245.479860689407	3
0	14455	5247.142543373138	2
0	14465	5249.224034179658	3
0	14469	5253.828864804454	4
0	14470	5254.092474985512	3
0	14476	5258.898691726535	4
0	14478	5260.164020575983	5
0	14479	5260.414510059532	4
0	14483	5261.287591555944	5
0	14485	5262.160124774843	6
0	14489	5267.867905258933	5
0	14495	5268.517385907102	4
0	14504	5270.058868236246	3
0	14509	5274.173118068424	2
0	14514	5274.33914858121	1
0	14520	5275.668734628446	2
0	14522	5276.056049920004	3
0	14524	5277.172193869806	4
0	14529	5279.026771842254	3
0	14534	5281.274354924054	2
0	14538	5282.162596543141	3
0	14544	5284.595193190161	4
0	14546	5285.725927238805	5
0	14548	5286.044395995126	6
0	14549	5290.269456676547	5
0	14556	5293.293655897163	4
0	14562	5294.582369744343	5
0	14564	5296.567290648287	6
0	14566	5297.532082671805	7
0	14567	5297.932004828456	6
0	14571	5301.950452434152	7
0	14573	5302.155093410178	8
0	14580	5305.535931979458	7
0	14586	5308.387502233331	6
0	14592	5311.578662281714	7
0	14593	5313.167309983996	6
0	14599	5313.383678122489	7
0	14602	5315.15270770731	6
0	14608	5315.165042811831	7
0	14610	5317.99114823218	6
0	14615	5318.222617581593	5
0	14622	5318.345505560739	6
0	14625	5319.364209782558	5
0	14632	5323.653999845409	6
0	14634	5325.058393423423	7
0	14636	5328.356885739199	8
0	14637	5328.547778567632	7
0	14644	5330.703003273497	6
0	14648	5332.123348823324	7
0	14650	5333.322425794256	8
0	14655	5334.868289220198	7
0	14659	5334.95643915466	8
0	14663	5336.210418844562	9
0	14664	5336.3908222357	8
0	14672	5338.248732840304	7
0	14677	5339.335178231831	6
0	14684	5339.846369638168	5
0	14688	5343.20642562664	6
0	14691	5343.658636766796	5
0	14696	5344.512053573971	4
0	14700	5344.629821401327	5
0	14707	5350.161785072477	4
0	14712	5352.194912797039	3
0	14718	5353.271115231117	4
0	14725	5358.299402669127	3
0	14729	5358.685749366903	4
0	14731	5361.932087974436	5
0	14738	5365.048992794937	4
0	14742	5367.303099268368	5
0	14745	5368.986299368906	4
0	14749	5370.314273578136	5
0	14757	5374.567179249311	6
0	14758	5375.781443531428	5
0	14765	5377.229022661321	4
0	14772	5379.018363805371	3
0	14777	5379.473604766018	2
0	14787	5381.820866201207	3
0	14789	5382.921871132389	4
0	14790	5383.953237219664	3
0	14795	5384.430601961792	2
0	14800	5384.469732143795	1
0	14807	5385.325732590784	0
0	14811	5385.722921273655	1
0	14813	5386.95882133538	2
0	14815	5387.250966303301	3
0	14817	5387.967558449465	4
0	14823	5392.062771275003	3
0	14830	5395.175237781791	2
0	14837	5399.758737549663	3
0	14839	5401.20017261386	2
0	14845	5401.446168954727	3
0	14847	5401.968542261742	4
0	14849	5402.514586013207	3
0	14855	5405.450839069375	2
0	14860	5405.518755938993	1
0	14865	5406.324720340174	0
0	14891	5415.166741358223	1
0	14895	5419.352114084729	0
0	14920	5425.747313872184	1
0	14922	5426.568517132627	2
0	14924	5428.215727633476	1
0	14930	5428.736932388544	2
0	14931	5428.759596234654	1
0	14939	5429.780350836696	2
0	14940	5431.262166130539	1
0	14944	5432.035119138119	2
0	14949	5435.529094757559	3
0	14952	5437.786812858837	4
0	14953	5438.48789786229	3
0	14962	5439.960528407998	4
0	14964	5441.330153842846	5
0	14965	5441.982521048455	4
0	14972	5443.745168218129	3
0	14977	5444.020124540825	2
0	14982	5444.499916967043	1
0	14987	5445.340737827246	0
0	14995	5451.317077584241	1
0	14996	5452.764627856538	0
0	15024	5466.920728855721	1
0	15026	5467.342287202289	2
0	15033	5468.326054313834	1
0	15040	5469.577253203276	2
0	15047	5475.22698991609	1
0	15054	5476.425024375887	2
0	15056	5478.72805853509	1
0	15061	5479.448033223408	0
0	15072	5480.869052124891	1
0	15079	5481.847843986217	0
0	15088	5488.826724191891	1
0	15090	5489.829214044977	2
0	15101	5492.658236023711	3
0	15103	5494.793881169473	2
0	15110	5495.273130878709	1
0	15117	5497.86214430522	0
0	15129	5501.033208241311	1
0	15130	5501.38617199609	0
0	15143	5505.906752233457	1
0	15148	5508.091651492561	2
0	15149	5508.638813506604	1
0	15157	5511.948222892381	2
0	15158	5511.994498088792	1
0	15164	5512.63865643842	0
0	15175	5514.528828992265	1
0	15178	5517.219740381242	2
0	15179	5517.283312678892	1
0	15185	5521.686599182989	0
0	15206	5529.565413410213	1
0	15208	5529.661212749128	2
0	15210	5531.448868369214	3
0	15215	5534.678715343254	2
0	15220	5535.429022787757	1
0	15231	5536.773378437716	2
0	15232	5538.5031027675	1
0	15238	5540.323346936035	2
0	15243	5544.487360617337	3
0	15247	5547.190364988213	2
0	15255	5547.866822319678	3
0	15256	5549.677548981302	2
0	15261	5549.734801606776	1
0	15267	5550.247021608612	2
0	15270	5550.418266180892	3
0	15272	5550.767643426804	4
0	15275	5551.382880111865	3
0	15280	5551.924065322989	2
0	15285	5552.998567306693	1
0	15291	5555.615204277713	0
0	15318	5559.126486542816	1
0	15322	5559.612083638735	2
0	15326	5560.642977702369	3
0	15328	5561.686708858624	4
0	15331	5563.144226498275	3
0	15336	5563.366242559522	2
0	15346	5565.746981874487	3
0	15348	5567.955817485918	2
0	15357	5570.444952870522	3
0	15359	5572.220543808948	4
0	15360	5572.474094977749	3
0	15365	5572.610262543666	2
0	15371	5573.870632792902	3
0	15374	5576.068847061364	4
0	15379	5577.364916877786	5
0	15380	5577.938904784128	4
0	15386	5579.779945382699	3
0	15391	5580.398510086635	2
0	15399	5582.186072296072	1
0	15405	5584.133055259577	0
0	15411	5584.62901956448	1
0	15412	5585.913367415623	0
0	15427	5588.717847288477	1
0	15428	5589.300315466356	0
0	15455	5599.945021719976	1
0	15457	5600.503924328537	2
0	15458	5600.528849587099	1
0	15468	5605.133547485526	2
0	15470	5607.85104783369	3
0	15474	5612.437425987041	4
0	15475	5613.130015459116	3
0	15481	5613.440911083773	2
0	15486	5615.474225478593	1
0	15493	5616.745306592252	0
0	15500	5619.434101871739	1
0	15501	5621.738569576274	0
0	15509	5624.529643879468	1
0	15510	5625.489454298615	0
0	15542	5643.075243760183	1
0	15543	5643.84096531883	0
0	15549	5643.852040432864	1
0	15553	5644.346452420551	2
0	15555	5645.659128825969	1
0	15563	5645.836827228788	2
0	15565	5646.910015718105	3
0	15566	5648.220885968511	2
0	15572	5650.996107898238	1
0	15583	5653.437681970083	0
0	15622	5673.30762045649	1
0	15624	5673.663130854253	2
0	15626	5673.923839345386	3
0	15630	5677.738996478355	2
0	15638	5680.220703585799	1
0	15644	5680.578738314371	2
0	15646	5682.064066424203	3
0	15649	5682.744383267499	4
0	15650	5683.293745408547	3
0	15659	5687.411803123156	4
0	15660	5687.436052615936	3
0	15665	5687.724161583155	2
0	15671	5687.875338956757	3
0	15675	5690.180893624742	4
0	15678	5691.189916634973	3
0	15689	5693.637862233541	2
0	15695	5696.666724515797	1
0	15700	5698.758046125394	0
0	15708	5700.7807659398	1
0	15712	5701.747766404881	2
0	15715	5704.167474975025	1
0	15722	5704.680678287362	2
0	15723	5705.507092217524	1
0	15732	5706.910719691799	2
0	15733	5707.806005703755	1
0	15740	5708.296111190887	0
0	15779	5722.59240830784	1
0	15780	5723.266062281238	0
0	15794	5728.04859319741	1
0	15802	5734.075181212691	0
0	15816	5735.068480948799	1
0	15818	5735.284513100395	2
0	15819	5735.993158668289	1
0	15825	5737.654495971919	0
0	15835	5741.30553237499	1
0	15837	5741.348926465439	2
0	15838	5741.502576197687	1
0	15846	5744.619029335082	0
0	15857	5746.903992986248	1
0	15863	5748.918781540445	2
0	15864	5749.890799794877	1
0	15872	5751.281945920081	0
0	15890	5756.140229421565	1
0	15891	5757.944187749901	0
0	15901	5762.813859556773	1
0	15905	5763.426530730234	2
0	15906	5765.037203625362	1
0	15913	5765.422545442107	2
0	15914	5765.81662130094	1
0	15920	5766.792834248714	0
0	15927	5768.527224155634	1
0	15928	5768.70852159337	0
0	15936	5772.108290334667	1
0	15945	5779.92102671148	0
0	15965	5786.884529768976	1
0	15970	5788.534489769217	0
0	15979	5789.770728615049	1
0	15982	5790.625319513713	0
0	15988	5791.34067546008	1
0	15990	5793.200634906326	0
0	16009	5796.976898753386	1
0	16012	5797.424186205475	0
0	16033	5805.978281437916	1
0	16036	5806.625167341802	0
0	16054	5817.352534483565	1
0	16055	5820.025348304338	0
0	16068	5822.423452906481	1
0	16072	5824.562762972657	2
0	16074	5824.853531487533	3
0	16076	5825.113850640988	4
0	16082	5830.392244317638	3
0	16087	5831.631007829546	2
0	16092	5836.067985233856	1
0	16100	5838.434335043225	2
0	16101	5838.525069257045	1
0	16107	5840.721375530918	2
0	16111	5841.013324086438	3
0	16116	5842.396079131448	2
0	16122	5843.411831548281	1
0	16128	5845.54401385719	0
0	16167	5859.505945957925	1
0	16170	5862.211495734712	0
0	16190	5869.384624993379	1
0	16191	5874.304832720962	0
0	16197	5875.091678815103	1
0	16199	5875.248994490505	0
0	16220	5884.459716845899	1
0	16221	5886.115197651836	0
0	16233	5887.651977965508	1
0	16238	5890.103382741873	0
0	16258	5896.187106853309	1
0	16259	5897.462900411618	0
0	16273	5900.983777135587	1
0	16277	5901.080284060495	2
0	16278	5901.332286170832	1
0	16283	5902.144521853362	0
0	16296	5904.251736689697	1
0	16301	5907.631917624177	0
0	16330	5914.400921107232	1
0	16331	5914.442210667535	0
0	16355	5922.023824328242	1
0	16357	5922.156028111256	2
0	16358	5923.616069374925	1
0	16365	5924.230185227973	2
0	16366	5925.221716144503	1
0	16371	5925.359704254182	0
0	16380	5927.703607866578	1
0	16383	5928.753405437925	2
0	16386	5932.542017949091	3
0	16387	5932.945013501506	2
0	16394	5934.95605907365	3
0	16395	5935.096555910975	2
0	16401	5935.810625213492	3
0	16407	5937.198885101772	2
0	16412	5938.06569757491	1
0	16417	5939.031852119734	0
0	16421	5939.059186165714	1
0	16426	5940.835129723384	0
0	16430	5941.302689192147	1
0	16433	5941.882937393236	0
0	16501	5970.334025259025	1
0	16506	5971.782310795982	2
0	16508	5972.033344145023	3
0	16510	5973.448928905393	4
0	16514	5974.52779595794	5
0	16516	5975.045643563513	6
0	16517	5976.848052005888	5
0	16523	5977.429334170312	4
0	16529	5977.837229831692	3
0	16536	5981.028553449674	2
0	16541	5982.321719610893	1
0	16548	5982.815924021366	2
0	16550	5982.958424198176	3
0	16551	5984.788667904399	2
0	16556	5986.110582183768	1
0	16562	5986.962137104637	0
0	16584	5991.867796333444	1
0	16585	5996.002216848436	0
0	16591	5996.454522971621	1
0	16593	5999.054944587692	0
0	16605	6002.86233708964	1
0	16606	6005.785103951568	0
0	16623	6010.348844352131	1
0	16625	6010.416558764478	2
0	16628	6013.211372569566	1
0	16635	6013.483804472628	2
0	16636	6016.321536059597	1
0	16642	6017.393830498151	2
0	16646	6021.337686715872	3
0	16647	6023.978116922483	2
0	16653	6024.254874141057	3
0	16655	6034.471093226589	2
0	16662	6038.70845577288	3
0	16663	6038.724559682684	2
0	16669	6040.034286482106	1
0	16674	6041.35742652379	0
0	16678	6041.665035303153	1
0	16681	6042.83470280065	0
0	16689	6044.650145984041	1
0	16690	6044.679761065304	0
0	16713	6053.593572477835	1
0	16714	6055.531351537064	0
0	16736	6059.15341893991	1
0	16738	6061.342396943931	2
0	16742	6064.22918637632	3
0	16747	6068.375966861918	2
0	16753	6069.713990005983	3
0	16757	6073.886937473074	4
0	16758	6075.824824874677	3
0	16763	6076.083129710802	2
0	16770	6078.582106983442	1
0	16775	6079.467990832414	0
0	16786	6080.611500734438	1
0	16790	6082.34751523371	2
0	16791	6083.687906917573	1
0	16797	6084.961836197598	0
0	16813	6093.178532940762	1
0	16817	6096.638706756415	2
[...]
4	69443	24523.982054327199	9689.8606876346
4	69510	24546.712570467029	9700.5884902143
4	69515	24551.327083142407	9704.5139301662
4	69525	24556.719967865248	9703.561301944
4	69537	24561.469095233806	9706.9172753571
4	69544	24563.349184380884	9701.2929905427
4	69559	24566.052050576987	9698.3098540608
4	69576	24568.96319261125	9698.0289429232
4	69594	24588.309788957142	9716.4590427604
4	70363	24878.088049453334	10004.637668953
4	70370	24879.767286532682	10001.546406614
4	70385	24888.180845893648	10001.354201362
4	70416	24894.112906765969	10004.570120101
4	70462	24911.236721975228	10011.914060874
4	70477	24917.363602959099	10012.234002792
4	70497	24925.82623609397	10012.625422975
4	70502	24926.056582593487	9983.9065106226
4	70509	24929.260258596115	9975.6712083591
4	70516	24933.392261467166	9979.6923146667
4	70666	24994.699868035336	10040.002687739
4	70698	25010.538843710132	10051.461820005
4	70731	25018.715101703168	10036.53481214
4	70738	25020.965853429075	10037.356331119
4	70745	25022.285211302011	10024.962812495
4	70758	25024.214455416665	10024.961389125
4	70765	25026.54847223827	10020.584377499
4	70776	25030.143365580652	10020.50677025
4	70807	25045.167675704983	10034.11170504
4	70821	25056.09785324377	10030.5187911
4	70826	25056.557539544924	10027.935419546
4	70831	25058.488207407352	10027.965775787
4	70838	25061.670659550113	10021.695282089
4	70856	25064.37662968384	10023.972426883
4	70866	25064.865122036242	10011.409566189
4	70873	25066.876092584865	9995.6252107881
4	70899	25075.321986304981	10001.175621787
4	70941	25094.84667519373	10018.901338907
4	70953	25099.037658707376	10021.858613319
4	70962	25101.772475407287	10022.251991936
4	70973	25103.23478096686	10019.382546229
4	70980	25104.556523294695	10018.17767515
4	70991	25110.129093048468	10019.691486465
4	70998	25113.742898939157	10013.717233298
4	71003	25114.454694235038	10014.081185517
4	71008	25119.310669933234	10015.471677429
4	71023	25130.027759282506	10022.077596256
4	71057	25137.55504429961	10024.644342975
4	71062	25141.160852569613	10025.475275421
4	71067	25141.94605930964	10023.050649907
4	71074	25143.089534989141	10022.850298168
4	71079	25144.727361412621	10022.345742571
4	71084	25144.886735722895	10019.139431701
4	71089	25149.449405056806	9994.585179189
4	71104	25155.466732866125	9995.8515672279
4	71199	25192.680431881554	10026.644009898
4	71204	25193.330566180742	10025.836538468
4	71213	25196.803347399205	10024.867610951
4	71227	25199.480109583467	10020.919660559
4	71243	25207.115041809334	10024.61107996
4	71248	25207.929708510938	10012.568469705
4	71257	25210.088216910607	10014.199332766
4	71269	25215.733552600503	10010.084925936
4	71826	25405.954840507353	10194.802314547
4	71837	25413.147101777178	10193.522227072
4	71850	25416.09083181648	10192.984995302
4	71974	25450.370331096713	10220.35368703
4	71979	25450.454714138045	10218.540163985
4	71986	25454.013348565552	10221.557423228
4	71997	25455.585633664983	10222.13128435
4	72004	25457.46304654201	10205.686034882
4	72060	25473.542703577751	10220.874968527
4	72076	25477.02627837365	10212.9908457
4	72089	25480.73483983408	10199.431692848
4	72096	25481.981199354557	10192.276379867
4	72105	25489.218586591063	10194.631955472
4	72112	25492.666125832951	10196.883265901
4	72130	25497.397532273225	10181.533056782
4	72174	25507.661810273793	10181.635347951
4	72186	25510.760376351855	10183.054287587
4	72205	25514.216732339765	10181.138015293
4	72212	25517.06626988909	10182.684286364
4	72221	25519.96248006001	10183.31811472
4	72226	25520.02462504839	10181.716882932
4	72231	25521.831452127474	10176.280599074
4	72242	25531.416218027739	10174.626192389
4	72275	25545.922224838505	10187.582340107
4	72286	25546.843547791762	10185.169058891
4	72296	25558.140710090074	10190.984401472
4	72327	25567.842091015208	10197.976744643
4	72556	25633.327744025763	10260.053160811
4	72568	25640.071692255681	10266.415110131
4	72606	25649.192998613308	10274.349863634
4	72665	25677.447775560042	10293.530332771
4	72684	25681.973753171686	10291.040877747
4	72691	25684.684357557523	10285.133500493
4	72712	25689.231988460213	10282.399421559
4	72723	25692.129615335351	10284.886201036
4	72728	25696.476526202293	10269.130788142
4	72735	25697.183584300768	10265.700682206
4	72742	25699.912591275727	10265.691767533
4	72748	25701.858090524702	10260.691881357
4	72755	25705.581724468484	10252.417239156
4	72765	25707.895231639112	10247.826450347
4	72785	25717.146603511623	10255.362664066
4	73205	25876.307363547275	10411.414566736
4	73214	25877.087495978991	10404.731398087
4	73219	25879.302764784263	10396.82050358
4	73233	25888.133125720343	10402.565071441
4	73388	25941.740329237314	10445.690377187
4	73393	25942.115680383354	10440.732564966
4	73402	25943.934536578174	10442.218479276
4	73431	25950.872694303291	10445.496598924
4	73453	25956.141270306014	10446.237566626
4	73463	25958.38290369544	10435.857169894
4	73468	25959.61315014964	10435.485458574
4	73473	25959.868329579643	10435.553987948
4	73478	25963.116022452685	10438.467889195
4	73485	25969.936866281587	10432.957151173
4	73526	25985.644489680274	10443.751582525
4	73589	26007.310864221781	10429.551145919
4	73620	26015.351132151946	10432.999101546
4	73633	26019.838058175709	10431.080809113
4	73688	26032.692391642817	10434.76818912
4	73724	26044.563143315658	10436.110322597
4	73737	26045.770811420555	10436.352654703
4	73775	26051.814152063731	10440.287049422
4	73813	26066.305433306695	10430.237710666
4	73900	26098.457689304033	10449.475358548
4	73905	26101.628505383572	10448.37837084
4	73914	26105.442786182241	10447.211473511
4	73922	26111.976821136513	10452.380468372
4	73968	26129.295815602626	10464.202910171
4	73975	26131.028053412977	10463.755182832
4	73980	26131.434264921508	10463.693597155
4	73993	26136.183446511514	10467.665935322
4	74078	26169.071388893625	10493.225456313
4	74090	26169.924275849951	10475.698730061
4	74097	26172.723580493369	10475.369694195
4	74109	26178.204403094379	10477.863261211
4	74119	26178.932920602052	10477.179867218
4	74126	26181.212255246566	10479.348921049
4	74141	26186.120899903434	10473.107509573
4	74156	26190.141840084501	10476.605514695
4	74179	26197.560465356889	10477.328358797
4	74184	26198.69304327834	10476.92155506
4	74195	26207.46579249802	10482.907447526
4	74233	26215.114683488434	10471.655070745
4	74238	26215.122505754908	10455.458646537
4	74255	26225.242836074061	10463.481904752
4	74410	26291.690644475893	10528.704346328
4	74419	26295.196806187055	10530.610989269
4	74492	26316.486483621816	10543.047922404
4	74503	26318.60230868034	10537.167157839
4	74516	26328.182418993325	10545.016758013
4	74535	26337.002585753124	10552.40549697
4	74542	26337.91707337348	10549.534506702
4	74547	26339.55239902164	10527.796076566
4	74552	26341.150731330408	10503.24710772
4	74561	26341.754070749981	10498.809613113
4	74586	26350.933955781042	10504.487546318
4	74827	26450.912577511739	10600.657433064
4	74836	26455.191172836831	10604.598576731
4	74846	26456.092750846856	10603.573281653
4	74858	26458.221749644647	10598.129757443
4	74920	26478.381257335043	10610.119564065
4	74927	26480.848064239906	10610.769822519
4	74932	26481.328680212255	10599.83557146
4	74945	26495.901080473513	10610.964289655
4	74974	26506.109833317173	10613.948713119
4	74994	26509.423992476844	10609.937856405
4	75006	26510.883683169112	10602.917123468
4	75014	26516.402018350442	10598.964961474
4	75021	26516.623082606218	10595.624840238
4	75041	26523.456073940526	10593.159644649
4	75046	26524.525859560328	10593.987395781
4	75051	26525.883626672073	10591.134386285
4	75062	26534.780243084521	10597.882823263
4	75080	26539.968216569732	10592.017973669
4	75085	26540.500768908681	10574.953195218
4	75101	26545.623072904782	10574.706984749
4	75154	26569.258938582653	10593.053934057
4	75177	26573.523350669398	10593.678525276
4	75230	26589.401159111082	10601.412661107
4	75239	26594.618681425784	10574.584291876
4	75244	26595.676622333897	10572.764246281
4	75250	26598.966271744955	10563.818890608
4	75255	26600.530065887845	10537.318929518
4	75262	26606.279883003218	10538.984731653
4	75284	26614.514218337467	10544.076528219
4	75293	26617.758477840466	10546.172446451
4	75300	26619.912686979784	10535.849277864
4	75307	26622.365678109814	10532.457159118
4	75328	26628.753812714493	10535.645784884
4	75512	26684.110301796162	10589.553275496
4	75519	26684.211368343576	10580.026129366
4	75532	26689.513366521814	10580.44862479
4	75539	26692.049690998505	10581.327362616
4	75630	26725.190412992455	10611.738434027
4	75635	26727.345776498026	10597.998600312
4	75640	26727.8086812647	10596.19291023
4	75645	26730.15427188368	10597.463962199
4	75650	26731.113554385162	10596.547577038
4	75657	26733.512036975417	10595.831696616
4	75662	26736.157047364575	10590.336152
4	75667	26736.653830321514	10589.242834667
4	75680	26745.050735433057	10596.755613812
4	75703	26749.727395881553	10594.081056894
4	75710	26753.317006647367	10596.952672419
4	75731	26767.718281174032	10594.5841239
4	75757	26772.52082028288	10592.486238511
4	76279	26987.607382044772	10804.226895703
4	76292	26988.874335465288	10805.276438745
4	76302	26994.012980064602	10808.64786891
4	76309	26994.310184709981	10804.534139963
4	76314	26995.414555409175	10802.814014669
4	76319	26998.435488665527	10804.871122952
4	76326	27005.963691483985	10803.961390148
4	76361	27014.813449392007	10797.140769699
4	76709	27147.685669102717	10928.939479792
4	76726	27152.954449430762	10926.505229281
4	76731	27153.70590390835	10927.245559357
4	76740	27156.157671122024	10924.872414233
4	76751	27157.985682722272	10923.293262537
4	76766	27166.966116109505	10930.85178487
4	77292	27357.247255164669	11115.899350525
4	77298	27357.688041969551	11113.753486082
4	77313	27366.286822114956	11119.563828227
4	77362	27379.515163605843	11131.225988918
4	77383	27385.538083529968	11135.282888513
4	77388	27385.981594266578	11119.686663717
4	77395	27388.614727840641	11120.508973294
4	77417	27398.812276292252	11130.585396944
4	77430	27400.193829704112	11129.015197993
4	77435	27401.280890512057	11125.405527941
4	77446	27408.397396153943	11131.050648846
4	77554	27451.003945873203	11162.201728535
4	77567	27458.873002725682	11169.312180239
4	77587	27461.55348878783	11168.82763902
4	77600	27464.048563111729	11166.543531694
4	77606	27464.846016371423	11160.677958284
4	77611	27466.038521626016	11157.59637585
4	77626	27470.933504027634	11157.976371474
4	77752	27509.426864633304	11195.503568575
4	77763	27511.157163015492	11193.288093264
4	77768	27511.535614782611	11191.127299843
4	77777	27514.223208934354	11192.165903865
4	77784	27517.733691215993	11186.840375916
4	77823	27533.79385870235	11201.5993019
4	77862	27545.751998763945	11189.95446516
4	77905	27560.482357187884	11197.451569359
4	78041	27610.083205397537	11244.820816176
4	78112	27636.284678741762	11270.553917062
4	78117	27636.496446929784	11261.170285399
4	78136	27644.751744515885	11254.937890471
4	78174	27653.050411032983	11249.285075133
4	78199	27659.041480783697	11253.325076544
4	78216	27662.053463939667	11255.085164777
4	78242	27665.504667186791	11253.924921426
4	78247	27671.326550712909	11258.840515989
4	78252	27672.443792584817	11254.047634853
4	78258	27674.579308264285	11229.954174686
4	78263	27674.959928370754	11228.033566987
4	78268	27677.220559140242	11226.483829726
4	78273	27679.488243737454	11223.681327509
4	78278	27681.938023457168	11221.173163691
4	78283	27687.734274744804	11223.34418818
4	78288	27689.271836331884	11223.916786879
4	78303	27698.921055727015	11225.617591837
4	78401	27725.995152287092	11248.519737211
4	78409	27728.464656420103	11242.362083849
4	78426	27738.865685223279	11252.005664369
4	79179	28018.069451528595	11526.382660349
4	79186	28023.609752226162	11528.519292287
4	79199	28026.76223495819	11521.221932201
4	79233	28051.708263917857	11529.7522381
4	79277	28062.588360258365	11540.348515453
4	79288	28067.491791641897	11535.6744011
4	79307	28076.098954513905	11543.745854049
4	79326	28082.719825878546	11546.238673262
4	79337	28084.135615723068	11534.211462332
4	79344	28088.1898070049	11528.77866087
4	79409	28113.50316831199	11546.359450726
4	79421	28116.437519189415	11546.047944373
4	79427	28118.831008420297	11538.234364651
4	79434	28122.189244609367	11540.313764568
4	79522	28147.814775403478	11563.908979922
4	79528	28148.49053057093	11563.95263251
4	79539	28152.960674638582	11561.173549939
4	79564	28162.989694625633	11563.063560425
4	79571	28164.276218541355	11550.708719302
4	79583	28165.586919835359	11549.257393977
4	79589	28167.669993198748	11543.718821519
4	79597	28169.554585717777	11542.091166283
4	79614	28176.472712322494	11548.169117009
4	79642	28192.414949784386	11559.497263691
4	79685	28210.712268215963	11577.394182654
4	79692	28212.473291601168	11563.181800904
4	79699	28213.710250914781	11563.028433748
4	79704	28214.063333194821	11562.851389781
4	79709	28218.711416334495	11563.345044548
4	79716	28221.345446170135	11547.675143298
4	79724	28225.365830745545	11550.500837784
4	79734	28225.470994364746	11536.141092169
4	79740	28229.664022706143	11533.513380536
4	79747	28231.695667578131	11531.746712769
4	79769	28237.152448880628	11531.186084516
4	79776	28237.577930299152	11509.717434544
4	79781	28238.834363902586	11500.234825614
4	79786	28242.375986028336	11501.630517937
4	79795	28247.615269041139	11496.953630724
4	79816	28254.10578642731	11498.570304254
4	79823	28255.614674284777	11491.299734956
4	79866	28266.671198605186	11500.799820491
4	79873	28266.950920032557	11498.727218244
4	79972	28298.66202095079	11528.008059923
4	79977	28299.111631211624	11518.687923078
4	79982	28299.282984129728	11517.674303041
4	79998	28305.469057223299	11506.698963161
4	80061	28321.709097812974	11513.117698305
4	80070	28330.252959897365	11507.125774011
4	80177	28363.475328972933	11511.633964909
4	80198	28368.893596820278	11516.75857945
4	80204	28369.627785437425	11512.572901217
4	80217	28375.727698127177	11514.712873268
4	80268	28390.347938543096	11517.495608123
4	80273	28391.583012905912	11516.427667753
4	80280	28394.392500908656	11519.131536765
4	80340	28409.129797740845	11532.052991229
4	80389	28419.581099112938	11538.515611454
4	80394	28421.923963337044	11536.914034366
4	80399	28423.930921754861	11522.032938324
4	80416	28431.665668156675	11528.260108132
4	80533	28474.512118292962	11570.118732291
4	80540	28474.981057607082	11563.051302016
4	80545	28478.428500845827	11566.179155169
4	80561	28483.308986113621	11565.424001483
4	80597	28492.392813299709	11569.620458236
4	80610	28495.149643876751	11569.771598726
4	80620	28495.280312118636	11563.83256989
4	80625	28496.264793448971	11561.141471585
4	80642	28509.595111061303	11558.455208355
4	80702	28524.912431945714	11563.666629335
4	80739	28534.661978238449	11565.919666917
4	80768	28543.631133299423	11567.538670089
4	80777	28549.946719685756	11572.567073445
4	80809	28556.041780228965	11574.927771707
4	80840	28571.139117270012	11582.053918759
4	80849	28577.956017204624	11585.423932133
4	80874	28582.915969186849	11576.441363662
4	80897	28585.181355572896	11568.549546938
4	80902	28585.742079978721	11563.418773005
4	80914	28591.829753845654	11562.967073565
4	80924	28594.843894442941	11560.53024773
4	80931	28596.392561380643	11556.126377287
4	80944	28598.083283850483	11556.834605094
4	80986	28613.853021796924	11572.24884649
4	81045	28639.004900390659	11589.064164274
4	81050	28640.864080528073	11573.371840925
4	81055	28641.865881828732	11570.339322869
4	81064	28646.363434457602	11569.87538795
4	81083	28653.419148033072	11574.797536869
4	81090	28655.161389158231	11574.201711106
4	81103	28663.552590577167	11575.021285217
4	81115	28667.366642696746	11576.799771976
4	81143	28678.731056809995	11571.154507758
4	81388	28784.134061632072	11671.051144346
4	81415	28799.549803825015	11677.299764407
4	81440	28816.684224134066	11685.658135234
4	81452	28822.328074682103	11690.927451538
4	81459	28825.618423595484	11686.440496127
4	81474	28833.815668637913	11692.437467106
4	81485	28835.673018424797	11686.117084774
4	81500	28840.87298681423	11687.387150799
4	81521	28848.680978035492	11686.27781429
4	81528	28852.59146283492	11684.91419949
4	81538	28855.000793433412	11685.465244212
4	81550	28862.404610709846	11691.845257483
4	81573	28871.704353838505	11696.235474779
4	81588	28876.781075360268	11699.703413797
4	81593	28878.491986777041	11694.548504013
4	81602	28882.344044173777	11697.638686569
4	81622	28888.237537396054	11702.168477182
4	81641	28897.633514626925	11708.736283049
4	81986	29017.435929567807	11828.027332314
4	82592	29221.547801763919	12021.602929933
4	82612	29227.859379832643	12027.45953514
4	82673	29249.193321955936	12035.220492333
4	82678	29250.765407695386	12021.125634905
4	82685	29253.318045430625	12019.960107227
4	82696	29257.294263537565	12023.120817981
4	82711	29262.733086948999	12023.565796915
4	82721	29266.831072477005	12010.291308792
4	82727	29269.454712033305	11990.60585253
4	82734	29272.578311615146	11991.086572914
4	82755	29285.567063601997	11991.277688124
4	82760	29286.499596908974	11980.77682101
4	82767	29287.033997079762	11978.527200738
4	82779	29290.202095490803	11976.248097289
4	82791	29295.146184679707	11980.45089795
4	82805	29299.316867890833	11978.032584819
4	82860	29311.496877021177	11979.720647702
4	82865	29311.63739266692	11978.865421107
4	82873	29315.165788834766	11979.409146378
4	82898	29338.815573292498	11988.43619418
4	82974	29358.397790136534	12006.291134459
4	82984	29360.66922449218	12008.451584885
4	83032	29378.884904187991	12022.093190479
4	83041	29380.473292807124	12018.621842349
4	83054	29381.491816503723	12013.933883287
4	83074	29391.292138473764	12014.347540563
4	83104	29404.444048259929	12025.825788742
4	83135	29415.16249932106	12032.368776626
4	83154	29421.200605258365	12033.36291353
4	83210	29442.413424204965	12051.016686836
4	83231	29453.348410713703	12059.58603346
4	83405	29516.103406678508	12121.402205207
4	83412	29520.611384644433	12116.957756687
4	83424	29526.059088553534	12121.362528769
4	83433	29529.748019328983	12114.91317064
4	83440	29531.160374438416	12110.865957002
4	83452	29533.917852649982	12108.270482298
4	83458	29536.00356247974	12102.451945557
4	83467	29542.301124292717	12107.698047025
4	83485	29544.410277064586	12104.321548089
4	83490	29551.495512177804	12109.26316849
4	83509	29559.400398707351	12075.95084029
4	83689	29609.781333856509	12114.98246274
4	83715	29613.460100433349	12111.88357772
4	83720	29613.554674767005	12109.370198775
4	83731	29619.676118688774	12114.143380154
4	83772	29626.916989240195	12114.198843142
4	83795	29647.057860183999	12134.319602872
4	83872	29680.545380559557	12161.883966483
4	83877	29681.304697593598	12137.657903148
4	83899	29694.698538728022	12150.236389713
4	83984	29720.820326700809	12173.111280994
4	83993	29726.55246585262	12172.923906522
4	84004	29729.108473727602	12168.273225775
4	84013	29732.845961368885	12168.014895452
4	84055	29750.237102037405	12184.050139815
4	84066	29757.889199469134	12182.616841076
4	84078	29760.565658879658	12184.670495692
4	84086	29762.325887295123	12180.014603449
4	84097	29766.090095315735	12180.968355321
4	84103	29768.940031372493	12167.070044898
4	84114	29777.160682610934	12171.202322727
4	84158	29787.318887656577	12179.954357033
4	84170	29803.692700133944	12180.407282617
4	84302	29845.838311386728	12212.045419562
4	84315	29853.513655110178	12215.404734878
4	84345	29860.667865154083	12220.051626749
4	84359	29863.407169405825	12218.609857136
4	84366	29866.774328163957	12215.517849799
4	84379	29868.532611601727	12209.006649155
4	84386	29871.578549086033	12196.585401763
4	84403	29880.463360868813	12196.123563626
4	84416	29885.274766929151	12200.074888348
4	84434	29897.079777087344	12211.409289369
4	84477	29905.532982686713	12195.890211136
4	84596	29952.629578661442	12239.664986528
4	84603	29957.31956951107	12241.253228273
4	84610	29965.404536896897	12244.766069303
4	84646	29977.216891568616	12252.430211375
4	84656	29984.02351523124	12256.161088313
4	84661	29984.832488349797	12254.066984377
4	84668	29988.79560511516	12247.565564101
4	84683	29994.741919582579	12252.660698849

