version 2
run Third-n2-12-20191016-17:04:51-1964
attr configname Third-n2
attr datetime 20191016-17:04:51
attr experiment Third-n2
attr inifile omnetpp.ini
attr iterationvars ""
attr iterationvarsf ""
attr measurement ""
attr network org.omnetpp.queueing.Pizza
attr processid 1964
attr repetition 12
attr replication ""
attr resultdir results
attr runnumber 12
attr seedset 12
param **.PS.maxInventoriedPS 2
param **.U1.interArrivalTime exponential(4s)
param **.U2.interArrivalTime exponential(6s)
param **.PS.serviceTimeForInventoryU1 exponential(1.4s)
param **.PS.serviceTimeForInventoryU2 exponential(1.4s)
param **.PS.serviceTimeDirectU1 exponential(1.8s)
param **.PS.serviceTimeDirectU2 exponential(1.8s)
param **.PS.probabilityProducing 0.8
param **.CS.serviceTimeU1 exponential(2.3s)
param **.CS.serviceTimeU2 exponential(2.3s)

vector 0 Pizza.EntryQueueU1 queueLength:vector ETV
attr interpolationmode sample-hold
attr title "queue length, vector"
vector 1 Pizza.CS queueLength:vector ETV
attr interpolationmode sample-hold
attr title "queue length, vector"
vector 2 Pizza.EntryQueueU2 queueLength:vector ETV
attr interpolationmode sample-hold
attr title "queue length, vector"
vector 3 Pizza.sink lifeTime:vector ETV
attr interpolationmode none
attr title "lifetime of arrived jobs, vector"
attr unit s
vector 4 Pizza.sink lifeTimeU1:vector ETV
attr interpolationmode none
attr title "lifetime of arrived jobs, vector"
attr unit s
vector 5 Pizza.sink lifeTimeU2:vector ETV
attr interpolationmode none
attr title "lifetime of arrived jobs, vector"
attr unit s
0	0	0	0
0	16	6.058772836419	1
0	17	7.347231324444	0
0	23	7.459481980149	1
0	27	12.637321568175	2
0	28	14.581599610948	1
0	34	17.14533877533	2
0	38	19.772832833512	3
0	40	21.220393137187	2
0	45	21.588710737462	1
0	50	23.116650171729	0
0	64	29.519074466734	1
0	69	30.100149573316	2
0	70	30.229290320545	1
0	77	33.759591210488	0
0	88	34.552446791866	1
0	94	35.412927889664	0
0	125	42.598877687398	1
0	131	45.087015517057	2
0	134	48.177596461511	1
0	140	48.557679927665	0
0	163	56.092002950925	1
0	164	56.331252330748	0
0	177	59.055022124776	1
0	181	60.281596268664	2
0	184	61.288178626946	1
0	192	63.247531218611	0
0	203	65.012104746064	1
0	207	66.254550501809	0
0	227	69.162994789519	1
0	228	69.192699817691	0
0	261	81.522385635301	1
0	265	83.605608984343	2
0	268	84.971311123048	1
0	273	84.978885899423	0
0	296	95.322079108474	1
0	298	95.887847850985	2
0	301	96.68487657234	1
0	307	97.385365099811	2
0	309	99.087852048837	1
0	320	102.636940702153	0
0	332	107.081396450781	1
0	334	107.42517006104	2
0	335	107.605314244927	1
0	342	110.29200398915	2
0	343	110.689147374053	1
0	349	111.178668635523	0
0	356	113.966773572103	1
0	357	114.733854930026	0
0	365	115.13786398687	1
0	367	115.455412527023	2
0	370	116.329194028405	1
0	376	118.594500757821	0
0	387	119.170945144887	1
0	390	120.801158781939	2
0	392	121.5828169541	3
0	393	122.462893601266	2
0	398	122.487028114303	1
0	404	123.086620314047	2
0	405	123.41589435628	1
0	409	123.44036521671	2
0	411	124.957615004404	3
0	415	128.262786145341	4
0	418	129.400072869762	5
0	420	130.144900910153	6
0	425	132.371107190327	5
0	433	133.55280533447	6
0	435	134.176925466569	5
0	442	135.632636711541	6
0	444	136.279060875062	7
0	446	136.280750164724	8
0	448	138.052898333512	7
0	455	138.867445715928	6
0	464	141.771638437315	7
0	469	149.163600244669	6
0	475	151.379335686297	5
0	482	153.344300210627	4
0	486	155.143310636338	5
0	488	155.890613501408	6
0	491	156.288031946528	5
0	496	156.791692911207	4
0	503	157.999693281093	3
0	509	160.183442986561	2
0	514	160.204425110122	1
0	522	167.864120220146	2
0	524	169.790114903493	3
0	529	173.150740121545	2
0	535	179.461164519805	1
0	542	179.985385183758	2
0	544	180.681004470275	3
0	545	182.786972792853	2
0	550	183.735291065897	1
0	556	184.226830287494	2
0	559	184.90367724893	3
0	562	186.021138947835	2
0	568	186.107111162813	3
0	570	186.883986525977	4
0	574	189.830755226565	5
0	575	190.053747743837	4
0	580	191.089140770016	3
0	586	192.859391168742	4
0	587	193.102203093081	3
0	595	197.305252346763	4
0	597	197.411807152355	5
0	599	197.767548397059	6
0	603	203.256211114563	7
0	606	204.835193496428	6
0	612	206.532457702138	5
0	620	207.090792530286	6
0	621	207.306275391581	5
0	627	207.856299573846	4
0	633	208.233201435931	5
0	635	210.717153106266	4
0	640	211.212449913739	3
0	648	214.230549988697	4
0	649	216.247116441325	3
0	655	216.880476890293	4
0	660	218.260133966036	5
0	661	218.91220495491	4
0	667	219.23024393825	5
0	671	222.074070352488	4
0	678	225.211984289417	5
0	679	225.332354293724	4
0	684	226.125022404516	3
0	689	226.569982602195	2
0	694	228.835983439226	1
0	704	230.996300596786	0
0	733	238.468907615936	1
0	738	240.504585333353	2
0	739	240.716959995416	1
0	744	241.703638467936	0
0	770	244.828485821081	1
0	771	244.856912452526	0
0	792	250.104979056919	1
0	794	250.443618055277	2
0	798	251.537149427449	3
0	799	254.038865709677	2
0	805	254.626794881169	3
0	807	254.638985054131	4
0	810	256.528350738247	3
0	815	257.785091982523	2
0	821	258.890660847299	3
0	823	260.271568724314	2
0	834	265.69606804507	1
0	840	271.174674484605	0
0	850	273.941206006922	1
0	858	277.183109088277	2
0	860	277.238947349544	3
0	862	278.062963662553	4
0	864	278.37089051647	5
0	865	279.291181105419	4
0	871	279.418049017007	5
0	872	279.950898846916	4
0	877	280.307118046244	3
0	887	282.10973186092	4
0	888	282.271626509249	3
0	894	282.860141224784	4
0	897	283.967665874893	5
0	899	284.293696566362	4
0	906	287.946962858869	5
0	907	288.795183172844	4
0	912	289.667823347389	3
0	916	290.411279291242	4
0	924	296.550704354126	5
0	925	296.582299680902	4
0	931	296.979313677581	5
0	933	297.065696891577	6
0	935	297.736497551341	7
0	937	297.865341999299	6
0	943	298.312650627106	7
0	945	298.373495613081	8
0	948	299.5018406184	7
0	953	300.476872348754	6
0	957	300.792418572126	7
0	959	301.310447259919	8
0	961	301.967238172238	9
0	963	302.167251911805	10
0	970	305.909908160351	11
0	974	307.771712591838	12
0	975	308.681130568508	11
0	982	313.763532365645	10
0	987	314.853024614764	9
0	993	315.705625338855	10
0	995	316.588476820783	11
0	1001	318.309995426472	12
0	1003	318.492909568709	13
0	1004	319.131367775841	12
0	1012	320.35110461398	11
0	1020	324.778383879677	10
0	1025	325.102362989939	9
0	1032	327.41321180576	8
0	1039	328.066373757773	7
0	1045	328.138794983589	8
0	1046	328.552623057278	7
0	1055	330.257200286673	8
0	1058	334.527464376175	9
0	1059	337.660575447023	8
0	1064	337.811725636057	7
0	1072	345.025037075635	8
0	1073	345.297985048845	7
0	1077	345.678795814643	8
0	1084	349.138769057994	7
0	1089	349.830220728261	6
0	1095	351.061011961213	7
0	1101	355.467369356532	8
0	1106	358.664730822739	7
0	1111	359.959903992193	6
0	1117	363.015342715858	5
0	1127	366.390907503269	6
0	1135	372.485456702193	5
0	1140	373.287676705303	4
0	1144	373.872953957169	5
0	1150	375.825102933516	4
0	1157	377.688884495362	5
0	1159	379.180833438671	6
0	1160	379.5211331239	5
0	1165	379.891069005822	4
0	1169	380.535993004714	5
0	1172	381.384210555915	4
0	1176	381.469582844356	5
0	1180	382.420749154458	6
0	1188	386.98220412291	5
0	1193	387.659703336037	4
0	1201	391.256241458446	3
0	1206	391.498042519449	2
0	1213	394.075760398405	3
0	1217	395.411275663759	4
0	1218	395.517394164497	3
0	1223	397.40402766893	2
0	1229	403.071557502339	3
0	1231	403.991900978691	4
0	1235	406.113456670145	5
0	1236	406.29206528688	4
0	1243	410.468203561199	5
0	1245	412.421071031006	6
0	1249	412.956212833315	7
0	1251	413.177056042219	8
0	1253	415.063055855895	9
0	1256	417.597697836721	8
0	1262	417.607331429997	9
0	1265	421.539811748881	8
0	1273	426.07381974698	7
0	1284	429.398019964898	8
0	1290	433.797630567594	7
0	1299	438.503023837789	8
0	1300	438.684808362687	7
0	1310	440.787570617972	6
0	1315	440.973195304022	5
0	1324	442.247160229771	6
0	1328	446.940061834323	5
0	1335	448.448394390362	6
0	1337	450.342374397344	7
0	1338	451.017531008528	6
0	1345	452.168037983345	7
0	1346	454.284833885339	6
0	1352	454.353560242328	7
0	1353	454.769789525722	6
0	1358	454.89812707384	5
0	1369	461.696154568803	6
0	1370	463.07039854	5
0	1378	468.173031942503	6
0	1379	468.498643517654	5
0	1385	469.652193668633	4
0	1390	469.884100427762	3
0	1395	470.027109596049	2
0	1400	471.199814267592	1
0	1404	472.281887788185	2
0	1408	473.552420832607	1
0	1413	474.525061845342	0
0	1431	478.75654155209	1
0	1436	484.143264519167	0
0	1445	484.310806607501	1
0	1450	485.741153664108	0
0	1464	493.024389567875	1
0	1466	493.135926904923	2
0	1468	493.418199024862	3
0	1476	494.683716410461	2
0	1481	495.036960964215	1
0	1486	497.040897233775	0
0	1494	499.889856232799	1
0	1496	500.050353452254	2
0	1498	500.524742923815	1
0	1504	500.5866852669	2
0	1505	501.568221240655	1
0	1509	501.948068645201	2
0	1512	502.42482172155	1
0	1516	504.849152433279	2
0	1518	505.195092764805	3
0	1521	506.239442585446	2
0	1527	507.79721385041	3
0	1531	510.85637744908	2
0	1538	512.031127149488	1
0	1546	514.298640356989	0
0	1563	519.942838591237	1
0	1567	522.59817571553	2
0	1568	525.329041814345	1
0	1575	527.578980080234	0
0	1583	531.579953477582	1
0	1587	534.030187343492	2
0	1590	536.242703549201	1
0	1595	536.372422530892	0
0	1601	537.788620819509	1
0	1602	538.229882737742	0
0	1619	542.444917535054	1
0	1622	545.598758752768	0
0	1639	551.840172036547	1
0	1641	552.948125266012	2
0	1645	555.531362116164	3
0	1647	557.374242950127	4
0	1649	559.440392235734	5
0	1651	560.423485551089	6
0	1653	562.706710071778	7
0	1655	563.803277713899	8
0	1657	568.468017342821	9
0	1658	569.629905672575	8
0	1664	569.688838504033	9
0	1666	570.968116544873	8
0	1674	573.160856037654	9
0	1676	575.409358911058	10
0	1677	576.55169987919	9
0	1682	576.907193363278	8
0	1687	578.775570280744	7
0	1693	582.266346745734	6
0	1698	583.291904294966	5
0	1703	584.653216275358	4
0	1707	587.346045853725	5
0	1709	587.895098599267	6
0	1711	588.923919797114	7
0	1714	590.053522835479	6
0	1719	592.747259418777	5
0	1729	600.409008911644	4
0	1737	602.120301878501	3
0	1743	602.815680156634	4
0	1746	605.218076113818	5
0	1748	605.875361210407	6
0	1753	610.317726577391	5
0	1759	614.500534965944	6
0	1761	614.598920969362	7
0	1766	619.205823665229	6
0	1775	622.189655228663	5
0	1782	623.691610317619	6
0	1785	625.166583508753	5
0	1791	625.373211307294	6
0	1793	625.966946829017	7
0	1794	626.3331228594	6
0	1805	628.671870057492	5
0	1815	632.163988325038	4
0	1822	633.901969933717	5
0	1827	637.722227836176	4
0	1832	637.943093665728	3
0	1838	639.480896712054	4
0	1840	639.749518867707	5
0	1843	641.274553876074	4
0	1849	641.650415015017	3
0	1854	643.160201452603	2
0	1859	643.576642470566	1
0	1863	643.598622358341	2
0	1867	643.973060370014	3
0	1869	644.162269262695	4
0	1873	648.299388599858	5
0	1875	648.626623087414	6
0	1877	649.506134848321	7
0	1880	652.512608077568	6
0	1888	655.831742193319	5
0	1900	658.236028105024	6
0	1902	658.63323382068	7
0	1906	660.714336621024	8
0	1908	662.260147034939	9
0	1915	666.210704200569	8
0	1923	667.460687147163	7
0	1928	669.686302427687	6
0	1933	670.386054173956	5
0	1937	670.916095776821	6
0	1940	671.902364528765	5
0	1946	675.435780575791	6
0	1949	676.831752958357	5
0	1955	678.822571153553	6
0	1960	680.484042348487	7
0	1962	681.953418795554	6
0	1968	682.305783021314	7
0	1973	683.786190429739	6
0	1979	684.318146969797	7
0	1983	686.902283736796	8
0	1985	686.986249226223	9
0	1988	688.662223533393	8
0	1997	692.459816810245	7
0	2002	692.999499886543	6
0	2008	694.67151785207	7
0	2009	696.669665465771	6
0	2014	698.137747170154	5
0	2018	699.129054880709	6
0	2021	699.866095369075	5
0	2025	700.230182942958	6
0	2029	702.648304281876	7
0	2030	703.713707878102	6
0	2036	704.42466223101	7
0	2042	706.38714476668	6
0	2048	708.679282874706	5
0	2053	714.225752275523	4
0	2060	719.802575081229	5
0	2061	719.920652955666	4
0	2066	720.850406369668	3
0	2078	724.69358008936	4
0	2079	727.702157605469	3
0	2084	731.01007170885	2
0	2089	731.576924066153	1
0	2096	732.10340755845	0
0	2116	736.417787657423	1
0	2117	736.428247254976	0
0	2143	747.542187653325	1
0	2144	748.417310083003	0
0	2154	750.966284412478	1
0	2158	752.328683951007	2
0	2163	755.219540954993	3
0	2165	755.238378154686	4
0	2167	756.162476716264	5
0	2171	760.488628727832	6
0	2172	761.645895473681	5
0	2178	762.42857648242	6
0	2182	765.790173818112	5
0	2188	766.152550921011	4
0	2194	766.180594680229	5
0	2195	767.554260262916	4
0	2200	768.170898522344	3
0	2207	771.427199878521	2
0	2213	777.752185262621	1
0	2219	778.076194990974	2
0	2222	786.156050643858	3
0	2223	786.196251030918	2
0	2231	788.485121457759	3
0	2232	788.675343998873	2
0	2237	789.386611678668	1
0	2242	789.484125785106	0
0	2250	793.021923386588	1
0	2254	794.350467701985	2
0	2256	796.399293929586	3
0	2257	798.50041064146	2
0	2263	798.874557230802	3
0	2266	799.989784474839	2
0	2272	800.064598399787	3
0	2274	801.949393050903	2
0	2279	802.160646249994	1
0	2284	804.329366908676	0
0	2313	817.19701274848	1
0	2316	818.286504896767	0
0	2327	818.978505778366	1
0	2331	820.074202249279	2
0	2333	821.677339794143	3
0	2335	822.573759325517	4
0	2337	824.086951156327	5
0	2339	827.255089841957	6
0	2340	828.053305247316	5
0	2348	832.092709555194	4
0	2354	838.018750390605	3
0	2362	839.481533463069	2
0	2372	848.471791147749	1
0	2378	851.109557512104	0
0	2389	851.575917345305	1
0	2393	854.788123083138	2
0	2395	855.920654083691	1
0	2400	856.767385134956	0
0	2421	860.143433327489	1
0	2425	862.208449201451	2
0	2428	864.275956908814	1
0	2434	865.398881460515	2
0	2435	865.607096333516	1
0	2443	866.824721449457	2
0	2444	867.733495843018	1
0	2454	870.359395434995	2
0	2455	870.544178743638	1
0	2462	873.28750760798	0
0	2476	881.312685428444	1
0	2477	882.58753779834	0
0	2503	901.886027920146	1
0	2504	903.728381986434	0
0	2513	907.163367445131	1
0	2520	910.836619649368	0
0	2537	912.333488315664	1
0	2539	912.469501128409	2
0	2541	915.570241930037	3
0	2544	915.799757560188	4
0	2545	918.367170007612	3
0	2550	918.931431963816	2
0	2556	919.210715282131	3
0	2562	923.378037980991	4
0	2563	923.682790818143	3
0	2568	926.520938257407	2
0	2579	930.98482045031	1
0	2585	934.306540961228	0
0	2623	943.974657500824	1
0	2626	944.724280201964	0
0	2651	955.414002694165	1
0	2653	955.793373065724	2
0	2656	961.026170943891	1
0	2663	962.13516000942	2
0	2664	962.742505124812	1
0	2671	963.152942670141	0
0	2688	967.261906130578	1
0	2690	967.269000205211	2
0	2694	969.251770993653	1
0	2700	973.51929587145	0
0	2738	980.814825421896	1
0	2741	986.847579814868	0
0	2750	987.822476362733	1
0	2759	993.87786749279	2
0	2760	994.475000636399	1
0	2772	999.369198429811	0
0	2804	1014.89656839163	1
0	2811	1019.087894583965	2
0	2812	1019.471906374167	1
0	2817	1019.965851838978	0
0	2863	1035.532255300311	1
0	2864	1035.722444651407	0
0	2870	1036.365334688613	1
0	2872	1037.983572449012	0
0	2879	1038.079764686701	1
0	2881	1038.556665972229	2
0	2882	1040.229488730217	1
0	2888	1040.776951612149	0
0	2914	1049.065220172252	1
0	2918	1050.068835806642	2
0	2921	1051.755899001884	1
0	2927	1051.766596633444	2
0	2928	1052.095397852396	1
0	2935	1053.788085663071	0
0	2941	1053.995957804213	1
0	2944	1061.071365401992	2
0	2947	1061.992550301372	1
0	2953	1062.42124813787	2
0	2954	1062.527990511224	1
0	2959	1062.972223663322	0
0	2966	1065.116128549416	1
0	2968	1066.110699187101	0
0	2986	1074.198650990675	1
0	2988	1074.764435277335	2
0	2991	1078.708416881992	1
0	3001	1081.784642305811	0
0	3022	1088.871140865973	1
0	3024	1089.602657273423	2
0	3029	1093.236775393612	1
0	3039	1094.562541841519	2
0	3041	1094.604407330408	3
0	3042	1094.877694441752	2
0	3049	1095.657717665293	3
0	3052	1096.488561784877	4
0	3054	1098.185700560202	3
0	3063	1099.55609933695	2
0	3071	1100.496809333849	3
0	3072	1102.531714046499	2
0	3080	1107.904685034111	3
0	3081	1108.377487210944	2
0	3088	1110.203122618853	1
0	3094	1113.754085209645	0
0	3105	1116.862595801958	1
0	3110	1117.557623685088	2
0	3115	1120.972594036628	1
0	3122	1121.71254299115	2
0	3123	1123.494902564999	1
0	3130	1125.454149854104	2
0	3131	1126.410228449513	1
0	3137	1128.062373763585	2
0	3138	1129.500320598916	1
0	3143	1129.637089713515	0
0	3155	1132.785405281239	1
0	3158	1133.608799560292	0
0	3171	1136.832367562366	1
0	3175	1140.435747721717	2
0	3176	1143.196738143402	1
0	3182	1145.129772319397	0
0	3200	1149.421395053058	1
0	3202	1151.116745739987	0
0	3216	1154.462978238273	1
0	3217	1154.820052330385	0
0	3226	1157.296232598095	1
0	3232	1160.035510866387	2
0	3233	1160.845947277957	1
0	3240	1163.825330702179	0
0	3253	1166.693163382938	1
0	3254	1168.997167220372	0
0	3273	1175.380635200919	1
0	3274	1175.420557944432	0
0	3282	1177.410746959897	1
0	3287	1180.02901228131	2
0	3290	1182.888180085897	1
0	3295	1183.036967808435	0
0	3304	1186.986993983883	1
0	3307	1187.960838234391	2
0	3308	1188.335251193534	1
0	3315	1188.84342033818	2
0	3316	1189.561643649523	1
0	3322	1189.693071912014	2
0	3324	1190.902669986802	3
0	3326	1190.977152090621	4
0	3327	1191.383685179619	3
0	3332	1192.530893869862	2
0	3342	1194.492786260123	3
0	3344	1194.849674103056	4
0	3346	1195.706475065909	5
0	3347	1196.893458854123	4
0	3352	1197.547352235359	3
0	3358	1199.021996688733	2
0	3365	1201.566970377727	3
0	3369	1203.888664195542	4
0	3371	1204.89476315237	5
0	3372	1205.449491143586	4
0	3377	1205.822093794356	3
0	3381	1207.943921860179	4
0	3392	1212.02639683312	5
0	3394	1212.204807438029	6
0	3396	1212.729733573926	5
0	3402	1214.036287355749	4
0	3411	1217.462930406304	5
0	3414	1219.250570563783	4
0	3420	1224.073094804682	3
0	3430	1228.439101240902	4
0	3431	1228.743536022274	3
0	3437	1231.047450034022	2
0	3448	1232.801092355542	3
0	3456	1236.839896494655	2
0	3465	1241.51198642945	3
0	3467	1242.383224797597	4
0	3468	1245.572239546315	3
0	3473	1246.432817682052	2
0	3481	1247.469017337621	3
0	3484	1248.289744955832	2
0	3491	1255.331422993966	3
0	3494	1256.478829440626	2
0	3501	1258.645164487942	1
0	3508	1264.104754689738	0
0	3519	1266.783675642673	1
0	3520	1267.205855600822	0
0	3526	1267.35856988613	1
0	3529	1271.601983357999	0
0	3537	1272.526687729649	1
0	3538	1272.606129450377	0
0	3545	1274.128091034671	1
0	3547	1277.174280638139	2
0	3548	1278.201371169238	1
0	3553	1278.847414320859	0
0	3559	1278.988184554155	1
0	3561	1282.373817960988	2
0	3563	1282.432112356861	3
0	3564	1282.518279971101	2
0	3572	1285.413385376716	3
0	3573	1285.415388319677	2
0	3577	1285.860467941417	3
0	3580	1286.870752937693	2
0	3591	1291.925770510932	1
0	3599	1296.196957663234	0
0	3625	1304.719593530092	1
0	3626	1304.996797958796	0
0	3641	1315.363847494223	1
0	3643	1315.775486443539	2
0	3644	1315.82498154469	1
0	3649	1315.988692271266	0
0	3677	1326.005528033257	1
0	3678	1326.110479819966	0
0	3685	1329.09894512572	1
0	3686	1330.873127726045	0
0	3692	1330.920628568987	1
0	3696	1333.199930713959	0
0	3706	1336.571152007725	1
0	3708	1337.336513261854	2
0	3716	1343.380743172544	3
0	3717	1344.438279182497	2
0	3725	1346.846033962613	3
0	3726	1347.36504884915	2
0	3731	1347.893532048782	1
0	3737	1348.382097082584	2
0	3740	1349.431549362865	3
0	3742	1351.0519990041	2
0	3749	1354.358848775378	3
0	3752	1354.710617358217	2
0	3760	1356.445970337891	1
0	3767	1358.177624513405	0
0	3820	1379.281723282387	1
0	3821	1381.093122969778	0
0	3836	1385.064962208821	1
0	3837	1385.778683805911	0
0	3849	1387.793923286637	1
0	3852	1388.266169159766	0
0	3858	1388.447435861899	1
0	3860	1389.062131805417	0
0	3893	1399.543691938239	1
0	3897	1399.955428361859	2
0	3899	1400.591671263543	3
0	3902	1403.546352524534	2
0	3910	1407.02483100139	3
0	3911	1409.325784200702	2
0	3917	1411.188227928347	1
0	3923	1411.614941249064	2
0	3924	1412.081103871916	1
0	3932	1413.393837009348	2
0	3933	1414.23049268196	1
0	3939	1414.553857643797	2
0	3940	1415.055386685023	1
0	3945	1415.530685058262	0
0	3965	1424.28918985453	1
0	3969	1425.377963222443	2
0	3971	1425.55373519685	3
0	3972	1425.693963933126	2
0	3978	1426.457695719555	1
0	3989	1428.075976379614	2
0	3991	1428.256001699393	3
0	3992	1428.341133165986	2
0	3999	1430.555896215078	1
0	4004	1430.874289793336	0
0	4018	1435.264524927955	1
0	4020	1435.717192486029	2
0	4023	1435.892622888402	1
0	4028	1436.773603684071	0
0	4034	1439.56082728227	1
0	4037	1440.676918264262	2
0	4038	1440.967817185391	1
0	4045	1441.918608107198	0
0	4058	1444.692557597994	1
0	4062	1446.825146274529	2
0	4066	1449.555470437313	3
0	4067	1449.721026060639	2
0	4074	1451.174313692076	1
0	4079	1452.095118616122	0
0	4085	1452.698732621857	1
0	4091	1454.519341382315	2
0	4093	1455.384923063656	3
0	4094	1455.895093626502	2
0	4099	1456.137892106446	1
0	4104	1458.83666947159	0
0	4115	1461.404068800746	1
0	4117	1461.889049032588	2
0	4119	1464.79508678726	1
0	4125	1465.742935916317	2
0	4127	1466.566783182401	1
0	4132	1466.723656935819	0
0	4136	1468.211169855223	1
0	4144	1473.266430845804	0
0	4168	1478.195116452663	1
0	4172	1479.888896118668	2
0	4173	1480.651196769449	1
0	4180	1481.147986916947	0
0	4188	1482.586680754019	1
0	4192	1485.543869422134	0
0	4214	1494.959671174672	1
0	4216	1496.069969742218	2
0	4222	1502.121453079372	3
0	4223	1502.525756468993	2
0	4228	1503.045754626734	1
0	4234	1504.453457418219	0
0	4241	1504.837662582242	1
0	4243	1505.016839063499	2
0	4246	1506.548180249271	1
0	4253	1508.620489605815	0
0	4268	1514.721982527304	1
0	4272	1516.92731865308	2
0	4273	1520.718164832143	1
0	4281	1523.507141015842	0
0	4297	1528.622013607156	1
0	4299	1529.004455475752	2
0	4301	1529.241664481421	3
0	4303	1529.77915092854	2
0	4310	1534.744290322622	3
0	4312	1535.782222173878	4
0	4317	1539.667824560323	5
0	4319	1543.046603557251	6
0	4321	1543.381031108923	7
0	4322	1546.076042221554	6
0	4328	1546.657166630616	5
0	4336	1553.973814704162	4
0	4342	1557.142593513912	5
0	4344	1557.837389223881	6
0	4347	1560.151657730255	5
0	4355	1569.075604798893	4
0	4363	1569.72835938635	5
0	4364	1570.913094278426	4
0	4374	1575.158496778828	3
0	4382	1578.470341772977	4
0	4383	1579.719925555641	3
0	4387	1580.39332930992	4
0	4392	1582.840783130491	5
0	4393	1582.994473200176	4
0	4398	1583.262986770228	3
0	4405	1588.911693183154	2
0	4410	1590.758622789439	1
0	4415	1592.30261803815	0
0	4421	1596.297406523612	1
0	4426	1597.83599281031	0
0	4448	1601.341234984956	1
0	4453	1605.249830550501	0
0	4474	1613.45550455344	1
0	4478	1615.555713581859	2
0	4479	1616.719408542635	1
0	4488	1620.190280707877	2
0	4491	1622.580539340381	1
0	4497	1625.749438400406	0
0	4508	1627.954767191774	1
0	4509	1629.708477556464	0
0	4522	1631.192268875634	1
0	4524	1631.531668296651	2
0	4528	1633.588465990236	1
0	4534	1634.451915888302	0
0	4554	1639.15309331331	1
0	4555	1639.337972824999	0
0	4561	1639.459032250358	1
0	4566	1643.168845314954	0
0	4584	1646.090134604694	1
0	4586	1648.24627820541	2
0	4588	1649.009274575502	3
0	4590	1649.521635967839	4
0	4591	1652.128568517244	3
0	4598	1653.462962880745	4
0	4599	1658.126289823107	3
0	4606	1658.549544358509	2
0	4613	1659.093768415969	3
0	4616	1661.417071638685	4
0	4617	1662.365820364607	3
0	4625	1669.07956696903	2
0	4632	1671.127086566858	3
0	4633	1671.428247799107	2
0	4639	1671.788433499505	3
0	4641	1671.792911490654	4
0	4645	1673.163968433557	3
0	4651	1674.116188777598	2
0	4656	1674.350518378884	1
0	4662	1674.432868770226	2
0	4663	1674.785064143994	1
0	4669	1677.773198295454	2
0	4671	1677.889366656792	3
0	4673	1678.003340362831	4
0	4677	1680.427419887593	3
0	4684	1681.511334282976	2
0	4689	1681.736665870152	1
0	4695	1684.653245744164	0
0	4723	1691.51361436411	1
0	4728	1693.226659927675	0
0	4734	1694.049796577484	1
0	4736	1696.272692204001	0
0	4751	1700.348585180527	1
0	4753	1701.010172391807	2
0	4757	1702.675575590961	3
0	4763	1708.865414941197	4
0	4765	1710.44594536009	5
0	4768	1711.587735392203	4
0	4774	1711.591599400907	5
0	4779	1714.268608913712	6
0	4781	1716.249700457027	5
0	4787	1716.649735272531	6
0	4790	1718.076250661576	7
0	4791	1718.10888310376	6
0	4796	1719.014415221427	5
0	4802	1719.351935027868	6
0	4804	1719.505159644311	7
0	4809	1720.289863432152	8
0	4811	1720.322709809268	9
0	4815	1725.713811525147	10
0	4817	1726.764757083329	11
0	4820	1727.825099263394	10
0	4825	1728.123352684521	9
0	4831	1728.308862238551	10
0	4833	1729.32430198688	9
0	4838	1729.756998790642	8
0	4845	1735.099828782504	7
0	4851	1735.473213459399	8
0	4854	1736.504920082383	9
0	4856	1737.980778763143	8
0	4862	1738.707369590458	7
0	4868	1739.932384075511	8
0	4869	1739.98735955001	7
0	4874	1739.98946111289	6
0	4880	1740.480586227586	7
0	4882	1742.212886898173	6
0	4889	1742.70421747915	7
0	4892	1744.465563888169	8
0	4893	1744.987774522611	7
0	4898	1745.884210178397	6
0	4906	1748.378861501766	5
0	4912	1748.536994496869	6
0	4916	1749.773058487355	7
0	4919	1750.48673513546	6
0	4926	1753.885462699203	5
0	4935	1755.655182561014	6
0	4936	1756.976812026217	5
0	4941	1757.033205508238	4
0	4946	1758.200404854027	3
0	4951	1759.565516988013	2
0	4959	1761.020593952387	3
0	4961	1761.183981385469	4
0	4964	1763.923482964329	3
0	4969	1764.328885322018	2
0	4976	1765.384321693083	1
0	4986	1775.562066357983	0
0	4996	1777.361762738196	1
0	5002	1779.38724889702	2
0	5003	1780.924486964843	1
0	5010	1784.58850466507	2
0	5011	1785.624960833765	1
0	5018	1786.93378551311	2
0	5021	1787.799774968788	1
0	5027	1788.413782878938	2
0	5029	1788.492602469934	3
0	5030	1788.643851867467	2
0	5036	1788.827866406435	3
0	5038	1790.548415304336	2
0	5043	1791.889796463595	1
0	5049	1794.841655725976	0
0	5073	1805.605616032027	1
0	5076	1807.736737247193	0
0	5082	1808.096680382071	1
0	5083	1808.365045329281	0
0	5089	1811.603972517661	1
0	5094	1812.267076198172	2
0	5095	1812.307979907032	1
0	5100	1813.118797811844	0
0	5125	1817.778688985369	1
0	5128	1819.119430797485	2
0	5131	1819.263153063199	1
0	5138	1819.712604043942	0
0	5163	1827.71854066404	1
0	5164	1831.110780520434	0
0	5170	1831.221743609297	1
0	5171	1831.960503624842	0
0	5179	1832.776421604982	1
0	5183	1837.74985432492	0
0	5199	1845.275154279256	1
0	5200	1847.103741373111	0
0	5220	1853.232342578042	1
0	5221	1853.278000404957	0
0	5237	1855.066975319623	1
0	5238	1855.198824536742	0
0	5245	1855.457837857706	1
0	5248	1856.130690464563	0
0	5281	1864.024528915965	1
0	5282	1864.440350379608	0
0	5308	1870.511290782408	1
0	5313	1871.455335366758	0
0	5344	1877.004977051305	1
0	5348	1878.584043916792	2
0	5351	1879.981136238243	1
0	5357	1880.445440107386	0
0	5366	1881.50743228007	1
0	5369	1884.210975310325	0
0	5375	1884.54248432958	1
0	5378	1887.978841580883	0
0	5390	1889.513269420184	1
0	5395	1892.908953520138	0
0	5415	1896.894610818532	1
0	5418	1897.874202128351	0
0	5425	1898.211169512507	1
0	5426	1898.2465800425	0
0	5438	1905.68754935829	1
0	5440	1906.672194827592	2
0	5444	1911.071335214879	3
0	5446	1911.628109927217	4
0	5447	1911.996719863927	3
0	5452	1914.049432227745	2
0	5463	1918.075088102595	1
0	5468	1918.252164418272	0
0	5484	1919.097877585255	1
0	5486	1919.43233272152	2
0	5487	1920.584525859553	1
0	5491	1921.078878516665	2
0	5495	1921.679210011026	3
0	5496	1922.250757041445	2
0	5501	1923.819507989929	1
0	5506	1926.6553228379	0
0	5541	1952.15145645321	1
0	5542	1954.60637649444	0
0	5550	1955.541030297323	1
0	5551	1955.863457299629	0
0	5566	1960.769382785154	1
0	5567	1961.403772558775	0
0	5589	1966.669397141744	1
0	5591	1967.559797728813	2
0	5592	1967.823070499196	1
0	5599	1968.811629365725	0
0	5616	1973.779731372405	1
0	5617	1975.086285268527	0
0	5624	1977.640907767714	1
0	5625	1977.775097878135	0
0	5644	1983.806902277569	1
0	5645	1986.25095974524	0
0	5657	1990.172816355976	1
0	5658	1991.364825106642	0
0	5691	2002.155938588805	1
0	5692	2007.891260064236	0
0	5705	2009.411933785861	1
0	5706	2009.507651758829	0
0	5717	2010.509548388732	1
0	5721	2011.383546251101	2
0	5722	2011.434359927599	1
0	5731	2015.014572466394	0
0	5735	2020.92781241604	1
0	5742	2028.158560657969	0
0	5749	2030.248945200226	1
0	5750	2030.646673385258	0
0	5756	2030.832184371923	1
0	5757	2031.197314558277	0
0	5800	2043.228781687294	1
0	5801	2043.505174603377	0
0	5808	2044.51329447263	1
0	5810	2046.414661888059	2
0	5812	2047.524095441515	3
0	5813	2047.536611675211	2
0	5819	2048.140376244079	1
0	5824	2049.383755477559	0
0	5833	2052.140809614347	1
0	5836	2054.465102054573	0
0	5842	2055.936859287067	1
0	5843	2055.963926258979	0
0	5849	2058.682758891056	1
0	5850	2058.685509727063	0
0	5884	2072.383425231917	1
0	5886	2073.686540330828	2
0	5888	2073.862378202346	3
0	5890	2074.076779860145	4
0	5895	2075.398486993322	3
0	5900	2075.429984629892	2
0	5907	2075.87847100868	1
0	5912	2076.065060624584	0
0	5924	2078.264505587283	1
0	5926	2078.656917282999	0
0	5932	2078.77806659523	1
0	5933	2078.921611091466	0
0	5943	2081.229065108447	1
0	5945	2082.215368326381	2
0	5947	2083.016686451074	3
0	5952	2086.69435333777	4
0	5954	2087.573432039478	5
0	5956	2088.34144284371	6
0	5957	2090.019113031473	5
0	5970	2095.789199304182	6
0	5972	2097.770233280308	7
0	5974	2098.787985100165	8
0	5975	2099.771241072808	7
0	5981	2100.587368590923	6
0	5986	2100.758128586338	5
0	5997	2102.839064889543	6
0	6000	2107.02418016418	5
0	6005	2108.953318270272	4
0	6012	2111.520835721914	3
0	6016	2114.156171740659	4
0	6023	2118.928312064625	3
0	6028	2119.075904134421	2
0	6034	2121.174824406658	3
0	6040	2122.146829208714	4
0	6041	2122.309631345058	3
0	6045	2122.563602550667	4
0	6050	2124.729214062871	3
0	6056	2126.584454212527	4
0	6059	2128.21684642495	5
0	6060	2128.580249827893	4
0	6068	2130.234284485545	3
0	6074	2130.276548298141	4
0	6076	2133.108241579397	3
0	6081	2133.690511167177	2
0	6088	2134.542695352068	1
0	6095	2137.968161064402	2
0	6097	2139.678981019572	3
0	6099	2140.093380982099	4
0	6105	2142.533838197314	3
0	6111	2142.775951845252	4
0	6115	2143.578557904448	5
0	6117	2143.710416785234	4
0	6122	2145.12882557598	3
0	6127	2145.730295474204	2
0	6133	2148.768218807791	3
0	6135	2149.616730025916	2
0	6144	2151.554187853364	1
0	6150	2152.144848094658	2
0	6151	2152.267819345143	1
0	6158	2153.625164863378	0
0	6191	2159.24562117012	1
0	6194	2162.302438503203	0
0	6200	2162.495922448014	1
0	6202	2163.100468996977	2
0	6203	2163.169152532212	1
0	6211	2164.39324394969	2
0	6212	2165.94825334894	1
0	6217	2166.376407104984	0
0	6228	2168.43032835746	1
0	6232	2169.082409728411	2
0	6234	2170.097990651455	3
0	6236	2172.107504292853	4
0	6237	2175.572730177848	3
0	6244	2176.677803139503	2
0	6249	2177.435330897145	1
0	6254	2177.667626839064	0
0	6258	2179.068392533449	1
0	6260	2179.12036841207	2
0	6264	2181.230511684297	3
0	6266	2182.861884208718	2
0	6272	2183.408665622383	1
0	6277	2183.62130060452	0
0	6300	2188.078583451866	1
0	6302	2188.107555865204	2
0	6304	2190.211144466908	3
0	6305	2190.643880260606	2
0	6313	2195.486038320487	1
0	6320	2197.041373332896	2
0	6326	2198.409383575056	3
0	6327	2201.909599015996	2
0	6335	2203.594283978953	3
0	6340	2206.616960533378	4
0	6342	2207.610936880705	5
0	6343	2207.889450065574	4
0	6348	2208.120552165874	3
0	6354	2208.487921543836	2
0	6360	2209.491990533997	3
0	6364	2211.107242090021	4
0	6367	2215.24348674861	5
0	6368	2216.933442578346	4
0	6374	2218.499803531288	5
0	6375	2218.681401928108	4
0	6388	2225.310897558927	3
0	6394	2225.949416569709	2
0	6402	2227.925518100483	3
0	6403	2228.574915255753	2
0	6409	2230.089582072181	1
0	6415	2233.829056663693	0
0	6427	2235.262015625902	1
0	6429	2236.166213917446	2
0	6430	2236.822832950423	1
0	6436	2237.021167216381	2
0	6439	2237.791518036875	3
0	6440	2241.053704382381	2
0	6452	2243.405396337557	3
0	6453	2243.614608514384	2
0	6462	2244.555937563802	3
0	6464	2245.037652173022	4
0	6465	2245.534275029753	3
0	6470	2246.939578556856	2
0	6476	2247.268224574271	3
0	6479	2249.559836304855	2
0	6487	2253.634997241908	1
0	6493	2255.680395695719	0
0	6500	2259.187078047638	1
0	6502	2260.485871596207	2
0	6503	2261.36815563472	1
0	6508	2261.425200135759	0
0	6520	2263.630657458165	1
0	6522	2263.729485014491	2
0	6526	2269.178467679569	1
0	6533	2274.222556054835	2
0	6534	2275.864661039817	1
0	6541	2276.759427162583	2
0	6543	2276.988560469524	3
0	6544	2278.946446286141	2
0	6550	2279.856155665892	1
0	6555	2280.751054381003	0
0	6566	2281.431181487644	1
0	6569	2281.950037854945	0
0	6588	2286.430017525435	1
0	6595	2289.348461176608	2
0	6600	2290.965905200405	3
0	6602	2291.193282269395	4
0	6603	2291.322212215626	3
0	6608	2291.374357009845	2
0	6614	2292.220351447839	3
0	6616	2292.220420834767	4
0	6618	2293.626861294048	5
0	6621	2294.704731107424	6
0	6624	2295.476304267965	7
0	6630	2301.426869508858	6
0	6637	2303.625584839909	5
0	6642	2303.760319223869	4
0	6650	2306.854299272604	5
0	6652	2307.376118259212	4
0	6657	2308.080296313282	3
0	6662	2309.491189523364	2
0	6667	2310.707330734444	1
0	6673	2311.778344242355	2
0	6679	2313.942512500253	3
0	6681	2313.984178059499	4
0	6687	2315.44101325882	3
0	6697	2317.259157145415	4
0	6699	2317.426367404781	5
0	6700	2317.578834646144	4
0	6707	2321.035666296379	5
0	6709	2323.949058906191	6
0	6710	2324.515822591449	5
0	6718	2325.123846877035	4
0	6723	2325.783906548564	3
0	6729	2325.906234616155	4
0	6733	2327.364864098402	5
0	6735	2327.596350862285	6
0	6737	2328.699496618564	5
0	6742	2328.699828785427	4
0	6746	2328.787603744957	5
0	6748	2333.143158434916	6
0	6754	2334.22066122183	5
0	6759	2336.780823115408	4
0	6767	2338.248339261578	5
0	6769	2341.537481606548	6
0	6770	2342.040833569757	5
0	6777	2342.242761718621	6
0	6779	2342.272293348423	7
0	6783	2344.261489438287	8
0	6784	2346.205997495778	7
0	6790	2347.838264957774	8
0	6792	2347.893287587704	9
0	6794	2348.204443359607	10
0	6796	2348.900058978254	9
0	6801	2349.802930137335	8
0	6810	2353.185796937646	9
0	6814	2354.478811962539	10
0	6818	2358.587306151845	11
0	6819	2358.852782909651	10
0	6826	2360.635726939634	9
0	6832	2360.756164067226	10
0	6833	2361.721732518518	9
0	6839	2362.447734690532	10
0	6845	2364.4281894583	9
0	6851	2365.458025658878	10
0	6852	2368.67037816765	9
0	6858	2370.78643750244	10
0	6859	2371.6589317808	9
0	6868	2378.726399329475	8
0	6875	2381.515654156385	7
0	6881	2382.533008522379	6
0	6886	2382.543440261404	5
0	6892	2382.644020359693	6
0	6895	2383.508604817566	7
0	6898	2384.373399212383	8
0	6899	2384.668173704368	7
0	6904	2385.496999826155	6
0	6910	2386.958124865549	5
0	6916	2388.371859703863	4
0	6925	2390.564731616992	3
0	6931	2392.322367415626	2
0	6942	2398.976746136346	3
0	6944	2401.159534225141	4
0	6945	2401.460812645614	3
0	6952	2402.302219308459	4
0	6953	2402.391560818873	3
0	6958	2403.35124350027	2
0	6964	2404.879377383672	3
0	6965	2407.404338148299	2
0	6971	2409.452716755053	3
0	6973	2410.992557772052	2
0	6979	2412.855353883666	1
0	6985	2414.37853015813	0
0	6996	2415.284107452898	1
0	6999	2418.841037316442	0
0	7013	2419.54139572002	1
0	7017	2429.753864813382	0
0	7027	2431.282875657108	1
0	7031	2432.363176313624	2
0	7035	2433.66720467138	3
0	7038	2434.336412766725	4
0	7039	2436.467615087614	3
0	7045	2436.766256332746	4
0	7047	2437.45847767938	3
0	7054	2437.640230444096	4
0	7055	2438.722156086209	3
0	7061	2439.009617804875	4
0	7064	2440.087456774913	5
0	7065	2440.171053091596	4
0	7070	2440.931361838683	3
0	7080	2444.236309727381	4
0	7083	2447.375180814068	3
0	7088	2448.24617364157	2
0	7095	2449.694853202734	1
0	7102	2450.761609122049	0
0	7117	2455.686914823895	1
0	7123	2457.153198267377	2
0	7125	2458.734530342766	3
0	7126	2460.78330259559	2
0	7132	2462.839554547909	1
0	7138	2464.179880902958	0
0	7145	2467.893972413277	1
0	7147	2469.2230202465	2
0	7149	2469.329004497214	3
0	7150	2470.452935013422	2
0	7155	2471.023319537832	1
0	7160	2471.661499063649	0
0	7173	2473.688093486544	1
0	7174	2474.340832804043	0
0	7189	2476.065264879321	1
0	7191	2477.647570805622	2
0	7192	2477.951534000324	1
0	7201	2480.391867385722	2
0	7203	2482.517002802507	3
0	7204	2482.869164385187	2
0	7214	2484.495332742336	1
0	7221	2486.488978576026	2
0	7222	2487.439565915561	1
0	7231	2488.376312185344	0
0	7275	2500.802694592332	1
0	7276	2502.017735264259	0
0	7285	2504.788975001715	1
0	7291	2507.40688133056	0
0	7303	2510.311756576544	1
0	7305	2510.466882824965	2
0	7306	2510.502613977904	1
0	7314	2514.350942644965	0
0	7321	2515.133883793057	1
0	7322	2515.204514237389	0
0	7332	2519.133931361298	1
0	7336	2522.01759197257	2
0	7338	2524.126771697988	3
0	7340	2524.958388603748	4
0	7344	2526.616117450782	5
0	7346	2527.835693917604	6
0	7348	2527.889601140598	7
0	7349	2532.320482656461	6
0	7354	2533.049268480385	5
0	7361	2534.032684796405	4
0	7365	2536.093122603611	5
0	7369	2536.776540235358	4
0	7375	2537.060146542208	3
0	7381	2537.53198260097	4
0	7384	2538.876163969201	5
0	7385	2538.926461867719	4
0	7394	2543.982436860474	3
0	7401	2544.038504984637	4
0	7404	2546.29722866008	3
0	7409	2546.589243185917	2
0	7415	2547.530061002014	1
0	7421	2548.527451789696	2
0	7425	2550.663949251287	3
0	7426	2550.915504251698	2
0	7432	2550.933167188151	3
0	7435	2551.676964888248	4
0	7439	2552.817875323795	3
0	7448	2554.160857017095	4
0	7452	2556.986963287749	5
0	7453	2557.60370389719	4
0	7458	2558.648130058691	3
0	7464	2560.851724325413	4
0	7467	2562.608090989675	3
0	7475	2564.824684966427	4
0	7478	2565.44514877717	3
0	7484	2570.080298495307	4
0	7488	2572.888675172049	5
0	7491	2574.008875568838	4
0	7496	2576.528028008793	3
0	7503	2579.82331662871	2
0	7509	2580.411205427127	3
0	7513	2582.151264854502	2
0	7518	2582.476982424608	1
0	7523	2583.505929320109	0
0	7527	2584.313471020557	1
0	7534	2589.456196459424	0
0	7545	2592.55382911106	1
0	7548	2593.367121145625	2
0	7550	2596.569890945085	3
0	7551	2598.701849069245	2
0	7559	2601.668522684092	1
0	7564	2602.525289724707	0
0	7575	2603.961116820439	1
0	7578	2604.350702837591	0
0	7584	2604.417714647388	1
0	7585	2604.773032730392	0
0	7593	2605.517169931761	1
0	7594	2608.229698848822	0
0	7607	2610.734095568032	1
0	7609	2611.930647196938	2
0	7611	2612.079227548704	3
0	7614	2612.538757906045	2
0	7619	2613.093707381334	1
0	7626	2615.072587853705	0
0	7635	2615.931115033551	1
0	7636	2616.6639587391	0
0	7642	2616.870374049464	1
0	7644	2619.087033825715	0
0	7673	2625.87605455617	1
0	7680	2630.069299006226	2
0	7682	2631.842648061854	1
0	7688	2632.415086234967	2
0	7689	2633.002753473226	1
0	7696	2640.867318271096	0
0	7704	2644.127992275136	1
0	7708	2645.564193922722	2
0	7713	2649.221231773221	1
0	7718	2649.329261072731	0
0	7724	2650.284131299477	1
0	7728	2654.21291464422	2
0	7729	2654.352034946882	1
0	7734	2654.80478891642	0
0	7740	2655.425492319437	1
0	7741	2659.227959300428	0
0	7751	2661.139927669158	1
0	7752	2663.400807893968	0
0	7794	2677.495594255976	1
0	7805	2686.053613194724	0
0	7811	2687.751941917781	1
0	7814	2689.564488585604	2
0	7816	2689.654773184657	3
0	7819	2691.216201740982	2
0	7829	2693.354007762593	1
0	7837	2695.55578180926	2
0	7839	2695.979290503824	3
0	7841	2696.012024298098	4
0	7842	2697.991490403194	3
0	7848	2700.118168863409	4
0	7850	2700.596524315058	5
0	7853	2705.330914507208	4
0	7859	2708.887827992528	3
0	7867	2709.588724926279	2
0	7873	2710.564299692059	1
0	7885	2714.743802446364	2
0	7886	2715.648107428329	1
0	7891	2716.258928517903	0
0	7897	2716.642128806784	1
0	7900	2717.526816222095	2
0	7902	2722.556592203275	1
0	7908	2724.509072824995	2
0	7909	2726.125325983948	1
0	7914	2726.759851791137	0
0	7928	2730.403679677672	1
0	7929	2730.925942375259	0
0	7944	2733.569057471238	1
0	7946	2733.820197528533	2
0	7949	2735.112253104708	1
0	7956	2736.459235831125	2
0	7957	2737.504553572309	1
0	7964	2738.832980603391	2
0	7966	2739.845428370048	3
0	7967	2740.143557322351	2
0	7973	2740.277693390529	3
0	7977	2744.865716072241	2
0	7983	2744.924544910386	3
0	7985	2748.645231782525	2
0	7991	2749.291028522127	3
0	7993	2749.885212276667	4
0	7994	2750.367893911043	3
0	7999	2752.201884322355	2
0	8003	2755.572122164888	3
0	8008	2758.907379780877	2
0	8015	2760.065901089767	1
0	8021	2760.231165944918	0
0	8032	2762.244942141192	1
0	8036	2763.992266838758	0
0	8042	2764.2308911648	1
0	8044	2765.253248409535	0
0	8072	2771.163587550089	1
0	8073	2771.418001668907	0
0	8098	2777.958810204972	1
0	8099	2780.36507670942	0
0	8125	2793.121659972329	1
0	8128	2794.68380033308	0
0	8134	2794.694655874679	1
0	8138	2796.417676197976	2
0	8140	2797.855595930417	1
0	8146	2799.448615330097	0
0	8161	2805.123994694476	1
0	8167	2807.290845415966	2
0	8168	2808.228174895902	1
0	8180	2813.523898906283	0
0	8226	2826.772521286403	1
0	8228	2830.511918072018	2
0	8236	2835.41205475195	3
0	8238	2836.318948398302	4
0	8239	2837.923294446712	3
0	8247	2839.447347405914	4
0	8249	2840.350148567471	5
0	8251	2840.818490450621	6
0	8253	2841.259276764519	7
0	8254	2841.665301703845	6
0	8259	2842.058684885524	5
0	8264	2842.37442114996	4
0	8271	2844.617673448758	3
0	8282	2852.749451312359	2
0	8288	2854.019406453638	3
0	8292	2854.913201354502	2
0	8297	2854.914255794069	1
0	8303	2855.804352496838	0
0	8309	2856.044672879072	1
0	8310	2856.475082508182	0
0	8314	2857.032985466361	1
0	8321	2859.379698142334	2
0	8325	2861.201560506696	3
0	8326	2863.52457689903	2
0	8331	2863.942199752099	1
0	8337	2864.448331031537	2
0	8339	2864.61328258392	1
0	8344	2865.234509510352	0
0	8348	2865.483746998941	1
0	8354	2870.950377663981	0
0	8361	2871.570288540064	1
0	8363	2871.642819267555	2
0	8366	2874.305432438132	3
0	8367	2875.960910896363	2
0	8375	2877.412963476984	1
0	8380	2877.746278705378	0
0	8386	2878.846843127203	1
0	8389	2880.074642605507	2
0	8393	2881.533495163023	1
0	8399	2883.88135315109	0
0	8405	2884.639909485101	1
0	8407	2884.794032543959	2
0	8409	2884.891297730939	3
0	8414	2886.518288132387	2
0	8419	2887.071697211188	1
0	8427	2888.992228908484	2
0	8431	2891.005624507383	3
0	8432	2891.174357823694	2
0	8438	2892.974955369034	1
0	8443	2893.764787755356	0
0	8451	2896.358638690936	1
0	8456	2898.21063093126	2
0	8457	2898.647658654744	1
0	8462	2898.912954657621	0
0	8466	2900.512174188557	1
0	8470	2901.115741170245	2
0	8471	2901.407483982948	1
0	8476	2902.039432247381	0
0	8484	2905.619134562304	1
0	8485	2907.299470081588	0
0	8503	2910.710539848946	1
0	8504	2911.55541918851	0
0	8517	2913.459901857576	1
0	8519	2914.130004538425	2
0	8520	2916.622535431716	1
0	8527	2918.775045923773	2
0	8528	2919.497727554248	1
0	8535	2921.096522289976	0
0	8551	2926.875435520203	1
0	8553	2928.733285950163	2
0	8557	2930.437083193999	3
0	8562	2935.145803621869	2
0	8574	2939.656296424962	1
0	8580	2940.910180517549	0
0	8586	2941.740223176	1
0	8588	2942.46559221252	2
0	8589	2944.515060769322	1
0	8596	2948.057485728042	0
0	8612	2954.279469113295	1
0	8615	2956.240149885621	2
0	8616	2957.23006307719	1
0	8621	2957.251386606048	0
0	8629	2958.914770691336	1
0	8630	2959.39802682553	0
0	8657	2965.102533069791	1
0	8658	2969.184257348132	0
0	8673	2971.901645998685	1
0	8676	2973.777813570341	0
0	8687	2976.802199108629	1
0	8692	2977.341401989276	2
0	8693	2977.480632429928	1
0	8698	2977.771222705258	0
0	8716	2984.359977475436	1
0	8721	2986.986837425661	0
0	8738	2989.990922685726	1
0	8741	2993.788957475909	0
0	8764	3005.626027700978	1
0	8769	3007.052360148433	0
0	8784	3008.340958231541	1
0	8789	3011.03208374119	0
0	8796	3011.780966441792	1
0	8798	3012.249875567397	0
0	8805	3014.072906556588	1
0	8808	3014.990465614594	0
0	8820	3018.071193985585	1
0	8823	3019.012377221517	0
0	8845	3027.205286772145	1
0	8847	3028.02948282513	2
0	8848	3029.725359308841	1
0	8853	3030.05976810255	0
0	8870	3035.095178969235	1
0	8873	3035.36509198788	0
0	8879	3035.531075224623	1
0	8880	3035.794725980664	0
0	8890	3039.808762886208	1
0	8893	3042.457848524063	0
0	8917	3054.44237859127	1
0	8919	3054.603674095671	2
0	8922	3055.457534322719	1
0	8931	3056.380507166467	2
0	8933	3056.883036750013	3
0	8934	3058.723978557782	2
0	8944	3064.417603729116	3
0	8945	3064.740493835794	2
0	8953	3067.353173224944	1
0	8958	3067.714516848772	0
0	8964	3067.830921357008	1
0	8967	3068.729912110841	2
0	8969	3068.855010245664	3
0	8974	3072.13300162994	4
0	8980	3080.726510015122	5
0	8981	3082.180510673661	4
0	8987	3083.01893980855	3
0	8995	3088.25688543878	2
0	9004	3088.838026512323	3
0	9007	3089.387873634307	4
0	9008	3090.588004142724	3
0	9014	3091.639602890802	2
0	9019	3092.125607318946	1
0	9024	3092.768746724648	0
0	9032	3094.673287197452	1
0	9036	3099.447337976898	2
0	9040	3101.014247046277	3
0	9042	3101.578140356246	4
0	9047	3103.62786697118	3
0	9053	3104.265555118159	4
0	9058	3107.393109585055	5
0	9060	3107.528081421079	6
0	9061	3108.915190219292	5
0	9069	3109.520704592391	6
0	9070	3110.033275061688	5
0	9078	3112.682204005339	6
0	9080	3114.108061039179	7
0	9081	3114.937127353572	6
0	9087	3115.382741298876	7
0	9089	3115.477554154433	8
0	9091	3118.544002127015	7
0	9097	3118.900663293699	8
0	9099	3119.297649189178	9
0	9100	3120.332053771144	8
0	9105	3120.355317062024	7
0	9111	3122.816603319966	6
0	9117	3124.113100783677	7
0	9124	3128.822885790353	6
0	9129	3131.160001807336	5
0	9135	3131.567870443656	4
0	9140	3131.820317564148	3
0	9148	3135.335030015583	4
0	9149	3137.942398986466	3
0	9156	3138.468488479579	4
0	9158	3138.629143397901	5
0	9161	3141.670460501065	4
0	9167	3144.545796584429	3
0	9172	3144.990135245929	2
0	9179	3146.081192802955	1
0	9185	3146.169939984889	2
0	9186	3147.158897252649	1
0	9192	3148.808478803421	0
0	9198	3149.104146780678	1
0	9200	3149.276944991845	2
0	9204	3151.131330337277	1
0	9210	3152.21176572714	0
0	9228	3159.834485173474	1
0	9231	3163.866221402879	0
0	9254	3176.499265904457	1
0	9257	3179.421416920628	0
0	9283	3188.215893981698	1
0	9284	3188.806828949729	0
0	9299	3193.846639205321	1
0	9303	3195.637785308323	2
0	9305	3197.674260126791	3
0	9306	3198.727100843271	2
0	9312	3203.028756834824	1
0	9320	3203.416711506628	2
0	9322	3204.082288753493	1
0	9328	3205.527836590237	2
0	9329	3206.422412739579	1
0	9335	3207.80085734665	0
0	9339	3210.572580330351	1
0	9343	3212.133301736879	0
0	9349	3212.231948924541	1
0	9352	3215.309481539488	0
0	9365	3216.458464761723	1
0	9366	3217.234892319797	0
0	9386	3220.453767189942	1
0	9387	3220.869061023641	0
0	9403	3225.211649405978	1
0	9405	3226.527296468004	0
0	9411	3227.344076177636	1
0	9414	3229.001426458149	0
0	9427	3231.334120985971	1
0	9429	3232.051414632914	0
0	9437	3233.348830202613	1
0	9441	3237.311066122914	0
0	9486	3253.663404404913	1
0	9488	3254.456311631431	2
0	9489	3254.999286549592	1
0	9495	3256.009384510711	0
0	9504	3256.557535976509	1
0	9508	3257.004535107805	2
0	9511	3257.709012871772	3
0	9512	3258.28747601667	2
0	9519	3259.49210877696	1
0	9526	3260.968733960766	0
0	9554	3266.613020435294	1
0	9557	3269.804921622524	0
0	9567	3272.028262386206	1
0	9571	3276.054576647675	2
0	9577	3278.228300065931	3
0	9582	3280.687186941134	2
0	9588	3284.648344682907	1
0	9593	3285.468582886118	0
0	9616	3289.604516289678	1
0	9621	3292.115151047408	0
0	9642	3298.106452280837	1
0	9643	3299.791935666163	0
0	9652	3301.724315335237	1
0	9660	3305.669137490122	0
0	9667	3306.570754729471	1
0	9671	3308.42521843093	0
0	9682	3310.328916425841	1
0	9684	3310.888522545149	2
0	9686	3312.008546875471	3
0	9687	3312.463846600199	2
0	9692	3312.685701405388	1
0	9699	3313.28296581391	0
0	9711	3314.223097443202	1
0	9716	3315.266163102382	2
0	9717	3318.555685905042	1
0	9723	3319.656745306674	2
0	9725	3319.695396014536	3
0	9727	3319.84610977553	2
0	9739	3328.919632710723	3
0	9742	3334.035193921263	2
0	9751	3336.808051232435	1
0	9758	3337.658254528513	0
0	9778	3341.784590049994	1
0	9782	3349.875089445914	0
0	9791	3353.043236249987	1
0	9796	3355.75853263085	2
0	9797	3355.964722577203	1
0	9805	3359.443440959333	0
0	9814	3361.09944792403	1
0	9818	3363.481528168774	2
0	9824	3364.415393262089	1
0	9835	3366.944899591152	0
0	9863	3369.893051451321	1
0	9866	3373.639608137323	0
0	9872	3373.81024389469	1
0	9875	3374.942007863307	2
0	9877	3375.572654727784	3
0	9879	3376.174101067735	4
0	9880	3376.554597462233	3
0	9885	3377.152966955917	2
0	9890	3377.211558105742	1
0	9899	3381.114629098062	0
0	9905	3381.921802402839	1
0	9908	3382.921214766734	2
0	9910	3383.310282449577	3
0	9911	3383.392599894247	2
0	9917	3385.815299880629	1
0	9923	3386.376072840666	0
0	9941	3392.523748700643	1
0	9943	3393.65448131726	2
0	9944	3393.679869255219	1
0	9952	3395.15638343967	0
0	9965	3395.915659159962	1
0	9969	3397.383307725749	0
0	10007	3409.490909572503	1
0	10011	3411.596188474948	2
0	10012	3412.015348585312	1
0	10020	3413.296582129836	2
0	10021	3414.084229602088	1
0	10028	3414.84992967149	2
0	10030	3415.796177763475	3
0	10032	3416.070634812425	4
0	10033	3418.010465113478	3
0	10039	3419.056927190906	4
0	10040	3419.312898076188	3
0	10047	3419.92180569168	2
0	10051	3420.488621845507	3
0	10055	3421.94030198964	4
0	10060	3422.309752572136	5
0	10062	3422.457552433275	6
0	10064	3424.76401062583	5
0	10074	3431.811525940057	6
0	10076	3432.351732277694	7
0	10077	3432.797827026511	6
0	10082	3432.816315674924	5
0	10088	3436.855575963994	4
0	10094	3438.071878930697	5
0	10096	3438.678276028614	6
0	10097	3438.786121666363	5
0	10101	3441.357358503791	6
0	10109	3445.4558424566	5
0	10115	3445.760561873152	6
0	10116	3447.159720561581	5
0	10121	3448.944570293554	4
0	10125	3449.888541684007	5
0	10127	3451.240365762052	6
0	10129	3451.317240537528	7
0	10131	3453.217195572028	8
0	10135	3453.511349167265	9
0	10137	3453.572092987885	10
0	10142	3457.03479327908	11
0	10143	3457.794928227112	10
0	10149	3458.225966585417	11
0	10150	3459.935889461641	10
0	10157	3462.652884687686	9
0	10163	3464.221119008586	8
0	10171	3469.598750017631	7
0	10179	3470.429070209005	6
0	10187	3473.580626445206	7
0	10189	3475.198126575945	8
0	10190	3475.299902975257	7
0	10196	3476.703251556338	8
0	10197	3476.772428551681	7
0	10201	3478.659859514371	8
0	10206	3481.921448672963	7
0	10211	3482.071330674669	6
0	10218	3485.109709632854	5
0	10223	3485.167725961821	4
0	10229	3488.456211189882	5
0	10231	3491.088230175416	6
0	10232	3491.262263025426	5
0	10242	3496.205484740626	4
0	10248	3497.043185802951	5
0	10251	3500.014561065899	6
0	10254	3502.780933588909	5
0	10261	3504.410102840036	6
0	10265	3507.889403665157	7
0	10266	3507.976251984943	6
0	10272	3509.70684012654	7
0	10274	3511.276053674091	6
0	10280	3511.578473562132	7
0	10281	3511.823512039885	6
0	10287	3517.890258500978	7
0	10290	3523.307065512169	6
0	10299	3527.229549292047	5
0	10305	3529.939185593313	6
0	10307	3530.434388145121	7
0	10312	3536.553064999385	6
0	10319	3538.381977441768	7
0	10320	3539.365002091272	6
0	10327	3539.786536061952	7
0	10328	3545.013055297145	6
0	10341	3551.993620336152	7
0	10342	3552.638128349104	6
0	10349	3554.634328776188	7
0	10353	3558.742262479368	8
0	10356	3559.948424923229	7
0	10361	3561.774419317589	6
0	10368	3562.073840003737	7
0	10370	3562.888511849576	8
0	10372	3565.584089753177	7
0	10377	3565.842904866292	6
0	10382	3566.559092119029	5
0	10392	3576.298173378768	6
0	10393	3579.176002659242	5
0	10398	3580.176186061497	4
0	10409	3591.614402794833	3
0	10414	3592.353267062254	2
0	10420	3592.724721289814	3
0	10422	3594.155619150328	4
0	10423	3594.286573633292	3
0	10427	3594.39325518087	4
0	10434	3597.629460144974	3
0	10439	3598.356669068123	2
0	10448	3600.863738235894	1
0	10455	3604.116627931417	2
0	10456	3604.239820412871	1
0	10462	3604.747171598843	0
0	10496	3615.926965891807	1
0	10499	3617.371865064949	0
0	10513	3620.707619470303	1
0	10516	3622.755370147207	0
0	10522	3623.252455661861	1
0	10524	3623.602496997999	0
0	10540	3639.651814674355	1
0	10542	3639.969142369806	2
0	10544	3640.155803350972	3
0	10545	3640.177868566909	2
0	10551	3640.605275460686	3
0	10553	3642.08714108802	2
0	10558	3644.274841368399	1
0	10563	3645.256277830385	0
0	10599	3665.096385406383	1
0	10603	3665.566111266323	2
0	10605	3665.893341730221	3
0	10606	3668.611837176979	2
0	10612	3669.303628954997	1
0	10623	3670.324932250898	2
0	10625	3672.17203379605	3
0	10626	3672.201853075136	2
0	10631	3673.649521259383	1
0	10638	3674.479222196385	0
0	10646	3677.114976996716	1
0	10650	3677.384523023413	0
0	10661	3678.15483890269	1
0	10667	3679.532055966326	0
0	10687	3682.757305290453	1
0	10688	3683.156451621812	0
0	10700	3685.461849404355	1
0	10703	3686.275689080846	2
0	10704	3686.428032461425	1
0	10711	3688.691616559674	0
0	10731	3698.143928495046	1
0	10732	3698.929357190826	0
0	10755	3705.80459218845	1
0	10757	3706.64313537105	2
0	10759	3706.819973054988	3
0	10761	3707.622448569124	4
0	10762	3709.113967437822	3
0	10767	3709.227161788344	2
0	10774	3710.026466362483	1
0	10780	3710.857619029489	2
0	10787	3716.272949168945	1
0	10792	3716.742672165132	0
0	10798	3716.914422652043	1
0	10801	3719.078423052895	0
0	10807	3719.99032245645	1
0	10810	3724.641311166192	0
0	10829	3729.590362849145	1
0	10831	3729.59338156901	2
0	10833	3730.53502424489	3
0	10838	3733.556367303055	2
0	10844	3735.428945519643	1
0	10851	3737.292510779602	0
0	10862	3741.836009939481	1
0	10863	3741.862653113314	0
0	10890	3746.793595154684	1
0	10896	3752.580803245035	2
0	10898	3752.773145229073	3
0	10906	3758.629310512684	4
0	10907	3760.677095430837	3
0	10913	3761.018375257707	4
0	10916	3761.457370655044	3
0	10927	3764.37357143651	2
0	10932	3764.895703523813	1
0	10939	3766.989014126674	2
0	10940	3768.534762320014	1
0	10947	3769.809102901823	0
0	10951	3772.712119912971	1
0	10955	3773.097436241036	2
0	10959	3774.644827861225	1
0	10968	3777.317204272268	0
0	11002	3792.69036067258	1
0	11004	3792.830703238296	2
0	11005	3795.069629490591	1
0	11014	3799.097180793027	2
0	11016	3800.054845572268	3
0	11018	3802.272437227638	4
0	11020	3803.019894476705	5
0	11025	3804.082620756803	4
0	11031	3804.551730907749	3
0	11036	3805.338981761106	2
0	11042	3805.870440631906	3
0	11045	3808.894589386677	2
0	11051	3808.922440935789	3
0	11052	3808.922815299865	2
0	11057	3809.018151103961	1
0	11063	3809.935075110222	2
0	11065	3810.971684886033	3
0	11068	3815.995757282055	2
0	11073	3816.311548538194	1
0	11079	3816.328170675207	2
0	11080	3817.078815934996	1
0	11087	3822.798942872627	0
0	11096	3825.711531704628	1
0	11100	3827.709291848065	2
0	11108	3830.866710447123	1
0	11113	3831.170271078799	0
0	11142	3834.467798771604	1
0	11146	3835.524959307222	2
0	11147	3835.76280217126	1
0	11154	3836.990898257611	2
0	11158	3838.180733744969	3
0	11161	3841.031300611907	2
0	11169	3841.898232677907	3
0	11176	3846.510735210388	2
0	11183	3851.577513357117	3
0	11184	3852.30805701921	2
0	11189	3852.995861497745	1
0	11196	3853.292954578457	0
0	11214	3859.50185255122	1
0	11215	3859.787461348744	0
0	11228	3863.809268312107	1
0	11231	3867.773011787908	0
0	11240	3870.758507664624	1
0	11243	3871.971316105627	0
0	11254	3874.649871838337	1
0	11260	3877.370426225939	0
0	11277	3880.460867752642	1
0	11282	3881.948590303206	2
0	11283	3883.474902092458	1
0	11289	3886.109204478068	0
0	11295	3887.614313374915	1
0	11296	3887.915439782072	0
0	11302	3888.627637479562	1
0	11307	3894.102028674449	0
0	11313	3894.177839624709	1
0	11319	3895.944935180644	0
0	11343	3902.443012550255	1
0	11344	3902.900631491404	0
0	11366	3909.906448824703	1
0	11369	3915.117103713965	0
0	11375	3915.140471643268	1
0	11377	3915.815191107647	2
0	11380	3925.5336861574	1
0	11389	3926.805106752098	2
0	11390	3927.46018347329	1
0	11395	3927.747720794661	0
0	11408	3930.850070247595	1
0	11409	3931.121864745131	0
0	11442	3943.755553312712	1
0	11446	3944.546841167261	2
0	11448	3945.379216974398	3
0	11455	3950.843456782841	2
0	11471	3962.554201610131	1
0	11476	3963.082975090269	0
0	11482	3964.129340782347	1
0	11485	3967.51915044819	0
0	11502	3968.357302949774	1
0	11503	3969.410019606	0
0	11512	3975.159883907564	1
0	11514	3976.816101712069	2
0	11515	3978.039511079577	1
0	11521	3979.463841920206	0
0	11539	3988.001171526272	1
0	11540	3988.072952059289	0
0	11557	3994.636245843104	1
0	11558	3998.867670982024	0
0	11575	4004.207022731434	1
0	11579	4008.209628772721	2
0	11581	4008.520801267319	3
0	11582	4010.785167175398	2
0	11587	4011.24119201968	1
0	11601	4016.64707217352	2
0	11604	4017.103918261794	3
0	11607	4017.999475041259	4
0	11609	4018.11053871647	5
0	11611	4020.517090857741	4
0	11617	4022.808174311431	3
0	11628	4024.750588061515	4
0	11629	4025.054477439085	3
0	11635	4025.954630774237	2
0	11642	4027.829716101211	3
0	11644	4029.439565846787	4
0	11647	4031.01277526575	3
0	11652	4031.189568664146	2
0	11660	4032.436890495634	3
0	11662	4034.368176306674	4
0	11663	4034.577342066066	3
0	11669	4034.773069923202	4
0	11671	4036.391958271423	5
0	11673	4036.801267719201	6
0	11675	4036.868498251227	7
0	11677	4037.297937737285	8
0	11678	4037.435632904673	7
0	11682	4039.34003887875	8
0	11684	4040.772585566184	9
0	11691	4044.462525465671	8
0	11695	4044.791437754631	9
0	11699	4047.425204015544	10
0	11703	4049.458690823749	11
0	11706	4053.75617495648	10
0	11713	4054.758701420915	11
0	11717	4057.407246413485	10
0	11722	4059.373299314131	9
0	11729	4060.206676624765	10
0	11731	4061.627206764029	11
0	11732	4063.999880779491	10
0	11743	4067.155753237621	9
0	11749	4068.335693233908	8
0	11755	4070.191783764294	9
0	11757	4070.663346511603	8
0	11765	4076.316518786404	7
0	11775	4080.271587588029	6
0	11783	4083.046929565687	5
0	11789	4084.882929107236	4
0	11794	4085.2495594769	3
0	11800	4086.767895400935	2
0	11810	4091.022739042311	3
0	11811	4092.801986103633	2
0	11817	4096.900445063678	1
0	11823	4101.509780463557	0
0	11850	4111.833960012528	1
0	11853	4113.211528191997	0
0	11865	4117.117460286183	1
0	11868	4120.681794479112	0
0	11874	4121.170828359588	1
0	11875	4122.750014860505	0
0	11884	4124.143229669441	1
0	11886	4126.220812588836	2
0	11888	4128.213816934535	3
0	11893	4130.684490815552	2
0	11900	4135.519850484235	1
0	11907	4140.319704882144	0
0	11915	4142.575528358139	1
0	11916	4142.829422520838	0
0	11932	4149.006395723262	1
0	11935	4149.411703081495	0
0	11945	4149.965400274655	1
0	11953	4156.569712991188	2
0	11956	4163.110150043089	1
0	11964	4164.436884156164	0
0	11978	4166.347472794131	1
0	11979	4166.803912444015	0
0	11985	4166.932097535061	1
0	11987	4170.042005337382	0
0	11999	4174.454937692097	1
0	12004	4179.499297492584	0
0	12019	4183.61696780024	1
0	12020	4184.967636346959	0
0	12036	4188.143996995826	1
0	12037	4188.445333660796	0
0	12043	4188.455675958867	1
0	12044	4188.511384153412	0
0	12050	4189.290974392257	1
0	12053	4192.307176236125	0
0	12068	4195.709609053908	1
0	12073	4201.073356056361	0
0	12080	4205.269367377916	1
0	12082	4205.393645809356	0
0	12088	4205.481676205581	1
0	12093	4212.054787325386	0
0	12105	4212.771129462205	1
0	12106	4213.079909392341	0
0	12139	4223.411010376902	1
0	12143	4226.692910076492	0
0	12158	4229.124147491183	1
0	12159	4230.484072695466	0
0	12171	4231.821675296371	1
0	12174	4233.926845172478	0
0	12182	4235.490273143282	1
0	12184	4235.672626601706	2
0	12186	4235.988831259954	3
0	12188	4236.24922427418	2
0	12195	4237.740928774063	1
0	12201	4237.888741607421	2
0	12207	4240.778800089096	3
0	12211	4243.082148319985	4
0	12213	4243.565341766647	5
0	12214	4243.831316376729	4
0	12219	4244.1860908764	3
0	12226	4244.995068188621	4
0	12228	4246.118022187466	3
0	12235	4250.831612792428	4
0	12236	4251.85359792303	3
0	12242	4251.971843091975	4
0	12245	4254.999807546991	5
0	12247	4255.989632832866	6
0	12248	4258.016992994211	5
0	12253	4258.838915787131	4
0	12258	4258.857391148684	3
0	12262	4259.060878268401	4
0	12264	4260.010275909469	5
0	12269	4260.918660179016	4
0	12276	4262.114838433813	5
0	12277	4263.106829236405	4
0	12282	4263.333165258943	3
0	12289	4264.47973685665	2
0	12298	4274.49001302715	1
0	12303	4274.82862760712	0
0	12307	4276.951729590484	1
0	12311	4277.134120815293	2
0	12312	4277.799797675949	1
0	12318	4279.343349586089	0
0	12348	4289.650718598181	1
0	12350	4290.039697986817	2
0	12354	4295.688650828251	3
0	12355	4297.537788985422	2
0	12361	4297.729297763517	3
0	12364	4299.903876665946	2
0	12371	4300.545402297475	1
0	12376	4301.259141877554	0
0	12387	4304.118369655815	1
0	12390	4307.294118264675	0
0	12399	4307.967402782714	1
0	12403	4308.975021353268	2
0	12405	4309.751973925742	3
0	12408	4313.190805185158	4
0	12410	4315.951936187419	5
0	12411	4316.474967641334	4
0	12418	4319.22636925171	5
0	12419	4319.584527231977	4
0	12426	4324.152810750099	3
0	12435	4332.865228086205	2
0	12440	4333.52452209207	1
0	12445	4336.356326143389	0
0	12449	4338.28789480612	1
0	12457	4348.994270720674	0
0	12463	4349.553684661769	1
0	12466	4350.39836167447	0
0	12477	4351.606562415167	1
0	12478	4352.160748945705	0
0	12496	4356.689187755851	1
0	12499	4358.90042894023	2
0	12501	4361.335395705035	3
0	12502	4362.23880455203	2
0	12511	4363.186806729495	3
0	12512	4363.685829570847	2
0	12520	4367.443645635195	1
0	12526	4367.44791169816	2
0	12528	4371.452997013831	3
0	12529	4372.252395429768	2
0	12534	4372.279266407412	1
0	12539	4375.136144607526	0
0	12564	4382.905730901525	1
0	12566	4384.172969761377	2
0	12568	4384.549402535129	3
0	12569	4385.122190311339	2
0	12575	4385.194363826214	3
0	12578	4386.529238743642	4
0	12580	4386.884639520646	5
0	12587	4390.241580475238	6
0	12589	4390.687017618508	7
0	12594	4395.183416915861	6
0	12600	4395.455416106708	7
0	12601	4395.939172737834	6
0	12609	4397.798571980506	7
0	12610	4398.336784435288	6
0	12616	4399.912306163512	5
0	12622	4403.873238942892	4
0	12628	4404.172583467331	3
0	12634	4405.23698449914	4
0	12635	4407.842675676476	3
0	12639	4409.409360808961	4
0	12643	4410.483088451801	3
0	12648	4411.0471959598	2
0	12652	4411.974761462394	3
0	12655	4414.102343894939	2
0	12659	4415.414377087619	3
0	12663	4417.163891428666	4
0	12664	4418.579528727414	3
0	12672	4419.994989951831	4
0	12673	4420.830502819745	3
0	12678	4425.316911171781	2
0	12684	4429.85504229645	3
0	12687	4430.911924865451	2
0	12693	4431.679877413285	1
0	12699	4431.943142780517	2
0	12701	4433.192444150113	3
0	12707	4437.765354814562	4
0	12708	4438.492137332886	3
0	12713	4438.55844245224	2
0	12719	4442.848475034232	3
0	12720	4443.279713643756	2
0	12732	4446.361420905732	3
0	12733	4446.906597383659	2
0	12741	4447.929296049583	1
0	12746	4451.081032359246	0
0	12752	4451.409693309015	1
0	12753	4451.675876134201	0
0	12765	4454.348487422476	1
0	12768	4455.727623819686	0
0	12826	4486.481246558368	1
0	12828	4486.811717339488	2
0	12830	4488.145009393413	1
0	12837	4489.198824571877	0
0	12851	4492.323911090555	1
0	12852	4493.495253665632	0
0	12871	4496.889713744071	1
0	12873	4497.657036957122	2
0	12875	4497.959591086684	3
0	12876	4498.512982997016	2
0	12883	4500.528047124373	1
0	12893	4509.945200349073	0
0	12909	4516.825554184208	1
0	12911	4517.907078516999	0
0	12922	4524.749906491982	1
0	12928	4527.013817008237	0
0	12934	4527.467570656464	1
0	12938	4530.104592729408	0
0	12944	4530.340495369893	1
0	12946	4530.947207403351	2
0	12948	4533.099278876235	1
0	12953	4533.212386993306	0
0	12977	4537.72236130581	1
0	12979	4538.492341934272	0
0	12986	4539.453527326905	1
0	12987	4540.329202634637	0
0	12997	4545.632471723685	1
0	12999	4545.759650644736	2
0	13003	4547.645446678789	1
0	13011	4550.540102191621	0
0	13033	4554.757407975914	1
0	13036	4557.903382173075	0
0	13048	4559.212300511228	1
0	13050	4560.012963430548	2
0	13051	4563.782735033141	1
0	13056	4564.170410395976	0
0	13077	4568.977162029963	1
0	13081	4569.441629937275	2
0	13085	4572.872192296679	3
0	13088	4579.407046048832	2
0	13093	4579.466336370902	1
0	13099	4579.584648890775	2
0	13104	4582.001651802685	1
0	13110	4582.02636707609	2
0	13112	4582.859761124374	1
0	13118	4583.436861278118	2
0	13119	4583.911253112569	1
0	13127	4586.01690410198	2
0	13130	4586.768588632024	3
0	13131	4588.586862807668	2
0	13139	4589.65375647358	1
0	13145	4590.47612558459	2
0	13146	4593.143888580564	1
0	13152	4593.805925977927	2
0	13154	4594.245050487916	3
0	13156	4595.539213076658	2
0	13162	4596.473350536584	3
0	13167	4598.967151972256	2
0	13175	4601.707688292163	1
0	13181	4602.336552052374	2
0	13184	4604.94805452684	1
0	13189	4605.912316812128	0
0	13195	4606.393016286774	1
0	13197	4606.543238260529	2
0	13200	4608.160660061969	3
0	13203	4611.112482000417	2
0	13208	4611.492998861717	1
0	13213	4612.143992442504	0
0	13217	4616.078617637755	1
0	13222	4620.82148437273	0
0	13240	4623.700610754722	1
0	13241	4624.734529027715	0
0	13249	4628.331308918676	1
0	13250	4628.600951188007	0
0	13256	4628.760605634934	1
0	13259	4631.118306810247	0
0	13285	4639.805554973829	1
0	13289	4641.617560195653	2
0	13291	4644.272186075692	3
0	13292	4644.692253217172	2
0	13297	4644.853441007099	1
0	13305	4649.27602022791	0
0	13311	4649.748380439152	1
0	13312	4650.5911834561	0
0	13318	4652.662690161272	1
0	13323	4653.954546939093	2
0	13327	4656.436194867473	3
0	13330	4660.32239688643	2
0	13335	4660.378007515813	1
0	13339	4661.488092377772	2
0	13341	4663.091114019721	3
0	13345	4664.922750916342	2
0	13351	4665.622382934882	3
0	13352	4669.962235214954	2
0	13357	4670.39580092036	1
0	13361	4670.577482353934	2
0	13367	4679.033896027921	3
0	13368	4688.096320921792	2
0	13376	4689.700827015505	3
0	13379	4692.045938655159	4
0	13380	4692.178304165921	3
0	13387	4694.974227053888	4
0	13389	4695.138233771161	5
0	13390	4696.62849716631	4
0	13396	4698.1257264653	5
0	13397	4698.689134780297	4
0	13404	4699.567395261108	5
0	13407	4701.373729077368	4
0	13414	4701.89064836726	3
0	13423	4706.465699935636	4
0	13425	4707.631276626973	5
0	13429	4710.916256054101	6
0	13431	4711.5169723829	7
0	13432	4711.78567070428	6
0	13440	4715.49213382866	5
0	13450	4715.871245718262	6
0	13452	4719.688210591842	5
0	13457	4720.042828084187	4
0	13462	4724.84087037173	3
0	13469	4726.399304505834	2
0	13474	4727.492397553444	1
0	13480	4728.419016147768	2
0	13481	4729.134519432123	1
0	13487	4730.329050215111	0
0	13499	4734.207590718374	1
0	13501	4734.227699862241	2
0	13503	4734.317624491795	1
0	13508	4734.911459475298	0
0	13521	4743.496109237254	1
0	13526	4744.752102994968	0
0	13543	4748.875811304748	1
0	13545	4749.355711179165	2
0	13547	4750.230342871686	3
0	13552	4753.475237099206	2
0	13557	4753.526156257127	1
0	13564	4754.893877856694	0
0	13572	4762.360679092671	1
0	13573	4763.254093481532	0
0	13589	4768.188664089474	1
0	13591	4770.326083862916	2
0	13595	4773.741151340618	3
0	13596	4777.278459483285	2
0	13603	4777.754905497716	3
0	13604	4777.961520912261	2
0	13613	4780.589217473884	1
0	13619	4781.414700749699	2
0	13625	4783.214276033621	1
0	13631	4784.823610373954	0
0	13646	4789.442237946232	1
0	13660	4800.850931891989	2
0	13662	4801.558026734994	1
0	13668	4804.674542981695	0
0	13681	4806.467022633791	1
0	13683	4806.876254828884	2
0	13685	4809.750718122704	3
0	13690	4812.937204443086	2
0	13696	4813.068166011611	3
0	13697	4813.40986041764	2
0	13702	4817.345932297055	1
0	13710	4819.815169255525	0
0	13739	4827.814356764017	1
0	13741	4828.12349159081	2
0	13743	4828.594724494145	3
0	13748	4831.716671106422	2
0	13757	4832.5287616923	3
0	13759	4836.563979707739	2
0	13765	4836.981114680652	1
0	13777	4840.164303454892	2
0	13779	4840.203949408349	3
0	13780	4840.370990401424	2
0	13788	4843.548142515459	1
0	13795	4844.189211665431	2
0	13797	4845.504598882483	3
0	13798	4845.751011140189	2
0	13803	4847.600548198175	1
0	13810	4850.060638794678	2
0	13813	4857.544562938462	1
0	13819	4857.825513883634	2
0	13822	4858.696756142964	1
0	13828	4859.312582179159	0
0	13869	4871.204016395955	1
0	13873	4872.959581017873	2
0	13874	4873.364452307173	1
0	13882	4874.823478840966	0
0	13905	4878.793832632982	1
0	13907	4879.069096563219	2
0	13908	4879.07754509738	1
0	13914	4879.383712520637	0
0	13920	4879.875631302215	1
0	13921	4880.420922628484	0
0	13931	4884.550324149502	1
0	13933	4884.783506774027	2
0	13935	4884.855201894253	3
0	13936	4884.868384464825	2
0	13943	4888.637673229778	1
0	13951	4891.394050681181	0
0	13958	4891.605172380904	1
0	13961	4892.432359264529	0
0	13972	4894.236646915918	1
0	13973	4894.698847587389	0
0	13985	4896.551227521857	1
0	13990	4900.664851928086	0
0	13996	4902.803107972145	1
0	13998	4904.082930584324	2
0	14000	4904.497233369051	1
0	14006	4904.569672032379	2
0	14011	4906.537661977154	1
0	14019	4909.354992388881	0
0	14036	4911.947040701803	1
0	14037	4912.078880810075	0
0	14057	4915.712670581336	1
0	14058	4916.245537893467	0
0	14082	4923.687331721972	1
0	14091	4927.426970495738	0
0	14098	4930.731578532896	1
0	14099	4931.456386762132	0
0	14114	4935.296412228529	1
0	14116	4936.792532183704	2
0	14117	4937.415412689024	1
0	14123	4937.629991893191	2
0	14124	4938.423306802464	1
0	14129	4939.122281422982	0
0	14135	4942.433745276432	1
0	14136	4942.660785031244	0
0	14152	4945.951010151754	1
0	14154	4946.381625162013	2
0	14155	4947.395630678494	1
0	14160	4947.406030745159	0
0	14166	4947.821469147771	1
0	14167	4948.887937408254	0
0	14173	4949.343540601975	1
0	14176	4951.192262320772	0
0	14180	4951.555853329149	1
0	14182	4953.013587907293	2
0	14184	4953.698547169863	3
0	14189	4959.415617375678	2
0	14195	4960.698468473423	3
0	14197	4961.012839332192	2
0	14202	4961.197892477599	1
0	14208	4963.73822585243	2
0	14210	4966.58204766119	1
0	14214	4966.59345469269	2
0	14220	4968.825399425514	3
0	14224	4969.387028220325	4
0	14226	4970.236263881807	3
0	14233	4974.090975466209	2
0	14238	4974.360853070336	1
0	14245	4977.273048975237	2
0	14247	4981.171545355886	3
0	14253	4984.063793912021	4
0	14255	4985.321638517087	5
0	14256	4987.101263036943	4
0	14263	4987.243912662603	3
0	14269	4991.21226920474	2
0	14275	4992.368610774608	3
0	14277	4993.937821399339	2
0	14283	4995.540096322229	1
0	14289	4996.444463888366	0
0	14318	5007.257239464255	1
0	14320	5008.215996015848	2
0	14321	5011.580367910931	1
0	14326	5013.746260972624	0
0	14350	5022.855902553699	1
0	14351	5026.680041858465	0
0	14373	5034.259967570706	1
0	14378	5038.574173821498	0
0	14395	5040.017829496147	1
0	14398	5042.732534442778	0
0	14404	5042.76914066485	1
0	14408	5044.568954481447	0
0	14439	5052.204083285318	1
0	14442	5053.091867355758	0
0	14453	5055.384977872634	1
0	14454	5055.750599531864	0
0	14490	5068.924404317136	1
0	14492	5068.962606376504	2
0	14493	5071.053073974151	1
0	14498	5072.412723909349	0
0	14505	5074.022385570988	1
0	14506	5074.087701250115	0
0	14524	5078.24799618249	1
0	14526	5078.253963895078	2
0	14530	5083.338522684203	3
0	14531	5083.919489115428	2
0	14537	5086.981934048519	1
0	14542	5087.316122977609	0
0	14550	5090.892518075789	1
0	14555	5092.058575475518	2
0	14556	5093.381654366526	1
0	14563	5094.213950288237	0
0	14597	5104.45458525704	1
0	14601	5105.092315582184	2
0	14608	5107.002312617476	1
0	14617	5109.562682231862	2
0	14619	5109.999614072236	3
0	14620	5112.178155564506	2
0	14626	5112.93470684085	3
0	14629	5113.944508217777	4
0	14630	5114.623261497525	3
0	14635	5115.772461358296	2
0	14641	5116.115849580529	3
0	14643	5116.614403880417	2
0	14648	5117.352753957605	1
0	14653	5118.945430839935	0
0	14691	5124.639694762287	1
0	14695	5126.37619194404	0
0	14709	5128.534822883434	1
0	14710	5130.617454441684	0
0	14716	5132.282194633423	1
0	14718	5132.976437823738	2
0	14720	5133.967350316787	3
0	14721	5134.248327461176	2
0	14726	5136.540048035843	1
0	14732	5139.931740232478	2
0	14733	5140.124566424353	1
0	14740	5143.313870560719	0
0	14772	5153.606572120166	1
0	14776	5153.945193569061	2
0	14777	5155.88428505806	1
0	14783	5163.112776244495	0
0	14789	5163.584591684943	1
0	14790	5163.863562429917	0
0	14803	5165.671270383611	1
0	14805	5166.278138259615	2
0	14810	5168.943649191517	3
0	14812	5170.802281475205	4
0	14813	5172.205481192548	3
0	14818	5172.256079064268	2
0	14823	5172.422624794008	1
0	14834	5173.734273254637	0
0	14840	5174.270182257245	1
0	14845	5179.167267561983	0
0	14885	5196.361995778128	1
0	14886	5197.505751822288	0
0	14896	5199.431367154198	1
0	14898	5200.397421975113	2
0	14899	5202.548562091614	1
0	14905	5207.979826849244	0
0	14926	5209.830331691449	1
0	14931	5213.126886076239	0
0	14944	5216.728801835257	1
0	14948	5218.479414540102	0
0	14960	5219.765873518252	1
0	14961	5221.468756163983	0
0	14967	5221.51351584595	1
0	14970	5221.636688971287	0
0	14995	5234.417927389042	1
0	14997	5236.491241584342	2
0	14998	5236.952721226496	1
0	15004	5240.148777247314	0
0	15010	5241.197987402231	1
0	15011	5241.67571385279	0
0	15019	5245.212660817765	1
0	15020	5247.254101561371	0
0	15038	5255.524063107065	1
0	15040	5256.636256996609	2
0	15043	5258.851593321477	1
0	15050	5259.27383807877	2
0	15053	5260.603132263891	3
0	15054	5261.709913764287	2
0	15059	5261.793039237578	1
0	15066	5262.892012639749	2
0	15067	5263.072983254263	1
0	15073	5263.204434962057	2
0	15076	5266.407790109944	3
0	15079	5270.651494583447	2
0	15085	5271.242897253347	3
0	15087	5271.359770215915	4
0	15089	5272.995299563598	3
0	15097	5275.094211634139	2
0	15102	5275.539866805606	1
0	15107	5276.626075425	0
0	15147	5286.219082208944	1
0	15150	5288.905101462529	0
0	15159	5291.966751453436	1
0	15161	5292.618744911545	2
0	15165	5293.011048508581	3
0	15168	5293.304684494043	2
0	15177	5296.71322751993	1
0	15183	5297.34904067576	2
0	15188	5298.088825936869	3
0	15190	5298.287506146774	4
0	15191	5298.525410860974	3
0	15199	5299.075681486626	2
0	15208	5302.233385435488	3
0	15210	5302.320392384533	4
0	15212	5302.577294550244	5
0	15219	5305.296182833455	4
0	15225	5305.675164659261	5
0	15228	5307.829053365977	6
0	15229	5308.753864422501	5
0	15234	5309.126029824211	4
0	15245	5314.669709113232	3
0	15251	5315.281774843513	4
0	15254	5317.349451359168	3
0	15261	5318.950739719624	2
0	15266	5320.780288409615	1
0	15272	5321.056124095544	2
0	15274	5322.880410113259	3
0	15278	5325.546990648997	4
0	15284	5328.5359972557	5
0	15286	5328.796262280075	6
0	15287	5329.068099769861	5
0	15293	5330.61385442391	6
0	15298	5335.592523203993	5
0	15304	5337.191467496958	4
0	15310	5341.553872252695	3
0	15317	5343.218225343932	4
0	15319	5343.226801553446	5
0	15320	5343.668355169186	4
0	15326	5344.371637075026	5
0	15328	5345.124925663629	4
0	15335	5346.937676442922	5
0	15340	5351.774637165637	4
0	15345	5354.963002894124	3
0	15351	5356.304603111869	2
0	15357	5359.732854714754	1
0	15363	5361.658323557869	0
0	15369	5362.103373634808	1
0	15372	5362.828030957862	0
0	15380	5363.515243750543	1
0	15381	5365.554077640615	0
0	15387	5365.895901811335	1
0	15389	5366.367529616616	2
0	15391	5366.898147202196	3
0	15392	5366.97724915974	2
0	15403	5369.896661452113	1
0	15408	5371.874755865872	0
0	15414	5376.680629441761	1
0	15415	5377.371374712313	0
0	15419	5377.560231386689	1
0	15421	5378.997488869863	2
0	15429	5381.710558348515	3
0	15431	5382.72746624379	4
0	15434	5386.426733310732	5
0	15435	5386.43415401749	4
0	15440	5386.507169805896	3
0	15445	5388.96529995883	2
0	15449	5389.235719089899	3
0	15455	5392.950994129939	4
0	15457	5394.239829735212	5
0	15466	5400.989093917128	4
0	15471	5402.766984883741	3
0	15476	5402.965463008711	2
0	15483	5403.810455008894	3
0	15485	5403.890836131517	2
0	15492	5405.322367224119	1
0	15498	5406.477506882954	0
0	15523	5413.071526514031	1
0	15525	5414.511780394083	2
0	15533	5419.020359934071	3
0	15534	5422.508709574469	2
0	15540	5424.950340683142	1
0	15546	5426.427334198987	2
0	15550	5429.315431797361	1
0	15556	5430.776722146053	0
0	15565	5436.73519235866	1
0	15569	5438.25471382003	2
0	15572	5439.634287782239	1
0	15578	5439.804101944047	2
0	15584	5441.804609299789	1
0	15590	5441.808587812946	2
0	15591	5442.531691971146	1
0	15601	5445.422643647494	2
0	15602	5445.509162610564	1
0	15608	5445.853869627517	2
0	15609	5446.483127806971	1
0	15617	5447.328908544722	2
0	15619	5449.01598716667	3
0	15621	5450.230480481287	4
0	15622	5450.828605161631	3
0	15630	5456.118126362864	2
0	15635	5456.806192465196	1
0	15642	5458.083474412924	0
0	15646	5458.718218663653	1
0	15648	5460.086250024782	2
0	15651	5462.467054967373	1
0	15657	5466.227846821654	2
0	15661	5466.368543959999	3
0	15664	5468.215142158741	2
0	15680	5472.63056477034	3
0	15681	5475.214514893423	2
0	15685	5475.35819496024	3
0	15688	5476.199419935218	2
0	15692	5476.340613752496	3
0	15700	5479.081266821829	4
0	15703	5480.321074079185	3
0	15710	5491.137655651892	2
0	15716	5491.578341016206	3
0	15718	5491.828176106441	4
0	15719	5493.465182953225	3
0	15723	5497.493337655815	4
0	15725	5498.371253349815	5
0	15731	5499.317202532033	4
0	15738	5501.092414597118	5
0	15742	5503.423881160728	4
0	15749	5507.849644249713	3
0	15755	5509.850127487812	4
0	15756	5510.687078312686	3
0	15762	5511.386394747069	4
0	15763	5512.589770463286	3
0	15773	5514.817880662672	4
0	15778	5516.331735995819	5
0	15781	5520.464132359054	4
0	15786	5523.600106106243	3
0	15794	5527.35444127521	4
0	15795	5527.475098087651	3
0	15803	5530.149923734153	4
0	15810	5534.180789004746	5
0	15812	5534.272465781682	6
0	15813	5534.326183004607	5
0	15820	5534.514018527341	6
0	15822	5534.619763873222	7
0	15826	5537.981677510756	6
0	15832	5538.527093621446	5
0	15839	5540.387303264749	6
0	15840	5540.53931980171	5
0	15846	5542.967809163725	4
0	15852	5543.042121410988	5
0	15856	5545.320915867247	4
0	15866	5551.048232551183	3
0	15871	5551.415509635926	2
0	15876	5552.535264443379	1
0	15880	5552.743684711643	2
0	15887	5555.046787804675	1
0	15893	5555.702324772586	2
0	15894	5556.459202943022	1
0	15900	5560.299007806264	0
0	15916	5563.475508290414	1
0	15918	5563.546677948861	2
0	15920	5567.22225446177	1
0	15928	5570.365857903618	2
0	15931	5578.70791561906	1
0	15937	5579.634412896604	0
0	15943	5579.81559536365	1
0	15945	5581.815433288592	0
0	15966	5589.181828261206	1
0	15967	5590.568094823346	0
0	15979	5593.622558271909	1
0	15980	5595.208142039628	0
0	15996	5599.429311195494	1
0	15997	5599.612896087894	0
0	16012	5600.477848800659	1
0	16014	5600.517431521889	2
0	16018	5603.530905559344	3
0	16019	5603.649225945116	2
0	16024	5603.886364417803	1
0	16031	5604.015569694831	0
0	16035	5605.473999455399	1
0	16038	5609.623594582761	0
0	16055	5613.781159110244	1
0	16057	5615.006410566424	0
0	16079	5621.454578366665	1
0	16084	5624.559610247936	2
0	16085	5624.687394434555	1
0	16091	5627.337932265441	0
0	16101	5628.914439906965	1
0	16102	5630.415368425109	0
0	16127	5643.612682300425	1
0	16131	5643.95205801494	2
0	16133	5645.128522206075	3
0	16138	5648.173590123425	4
0	16140	5651.132608221399	5
0	16141	5651.916095345231	4
0	16147	5652.379003878896	3
0	16153	5653.501350374324	2
0	16158	5654.489365828897	1
0	16165	5656.548133184067	0
0	16182	5661.163377063572	1
0	16183	5661.334750305144	0
0	16195	5663.638252751136	1
0	16196	5663.730010930124	0
0	16211	5667.822761552903	1
0	16215	5670.130036692867	2
0	16217	5671.398487719905	3
0	16218	5671.602215668152	2
0	16224	5673.129228445027	1
0	16230	5675.128823340099	0
0	16236	5676.071106132359	1
0	16239	5679.855201723991	2
0	16240	5680.712753344931	1
0	16247	5683.144491139388	2
0	16248	5683.372734175332	1
0	16255	5683.738010470819	0
0	16270	5687.823871475317	1
0	16271	5688.819090785423	0
0	16301	5698.027977729889	1
0	16303	5700.329388568167	2
0	16308	5701.045355634681	1
0	16317	5703.761008655065	0
0	16323	5703.789774298353	1
0	16327	5703.871356559552	2
0	16328	5704.693496129623	1
0	16334	5706.179816822925	0
0	16340	5706.669664522355	1
0	16344	5707.831310302462	0
0	16374	5719.034626341992	1
0	16378	5724.075543386076	2
0	16380	5725.299887697681	1
0	16389	5726.417734068553	2
0	16390	5727.869713776517	1
0	16397	5728.562169605079	0
0	16417	5735.710548596653	1
0	16419	5736.631203483967	2
0	16420	5736.687149048232	1
0	16427	5738.363218182897	0
0	16433	5741.020355968834	1
0	16434	5742.197170771627	0
0	16459	5750.142806090855	1
0	16460	5757.501031953115	0
0	16467	5758.557861583246	1
0	16468	5759.503171580232	0
0	16481	5764.25517820771	1
0	16483	5764.27280240479	2
0	16487	5766.086139494945	3
0	16489	5766.576194467211	4
0	16491	5767.466868032551	5
0	16492	5768.753665522941	4
0	16497	5769.652687667703	3
0	16508	5773.626658484644	2
0	16514	5773.975450818419	1
0	16522	5775.316918198855	2
0	16524	5776.285892707963	3
0	16526	5777.237257956835	4
0	16527	5778.458137224117	3
0	16532	5778.992075461414	2
0	16540	5783.909254128214	3
0	16542	5784.15865503606	4
0	16546	5786.82118944457	3
0	16553	5788.404451103285	2
0	16559	5790.343174471151	1
0	16565	5793.043640684419	0
0	16579	5795.28019283565	1
0	16582	5798.599966159698	0
0	16594	5800.801150198089	1
0	16595	5803.508506902037	0
0	16603	5803.774480788517	1
0	16604	5804.424569411029	0
0	16618	5808.256386313833	1
0	16622	5810.080479001507	2
0	16624	5811.699146893372	1
0	16632	5812.24033370628	0
0	16652	5818.70105911689	1
0	16656	5819.674433402206	0
0	16688	5829.541471364328	1
0	16689	5829.93761113331	0
0	16696	5832.389292661296	1
0	16697	5832.517958603923	0
0	16703	5833.613594547056	1
0	16706	5834.044926283647	0
0	16712	5834.349349446484	1
0	16714	5834.556557227654	0
0	16736	5836.964382549299	1
0	16738	5836.996671675234	2
0	16740	5839.907539794359	1
0	16746	5840.734178525812	0
0	16762	5845.706521292239	1
0	16764	5848.319929755527	0
0	16774	5849.227860378278	1
0	16776	5849.274949977348	2
0	16780	5850.367873311082	3
0	16782	5850.550856471914	4
0	16785	5852.445736661903	3
0	16792	5854.09142638863	2
0	16797	5854.454711481246	1
0	16803	5854.881936107967	0
0	16816	5860.914350625611	1
0	16819	5863.933784861296	0
0	16829	5866.012030732499	1
0	16838	5870.066387282924	0
0	16858	5873.617979122525	1
0	16862	5877.131184763965	0
0	16868	5878.126485239899	1
0	16869	5878.954575731985	0
0	16875	5879.2168372967	1
0	16878	5879.765239168875	2
0	16879	5880.237356038807	1
[...]
5	73519	25779.066574591334	9215.4640960327
5	73543	25787.490705363449	9221.7776853186
5	73563	25791.11309775737	9224.3529996265
5	73568	25793.382135285681	9218.9467299594
5	73575	25798.65773567698	9216.9680705862
5	73588	25809.017255202747	9223.8792745043
5	73718	25852.41131882012	9265.1553096134
5	73830	25889.555342425356	9288.4422563091
5	73835	25889.718493295291	9286.36648404
5	73847	25896.561713004728	9292.9068973452
5	73922	25929.690418356455	9318.2990697195
5	73943	25940.517408626022	9325.4170867563
5	73948	25940.908066302177	9319.7767932784
5	73953	25945.303015165469	9318.5607502354
5	73958	25946.66762039825	9309.7254788338
5	73968	25951.271863243926	9309.4483385417
5	73985	25953.877293281649	9304.841737814
5	73998	25960.081966554324	9308.1619724574
5	74045	25971.638678920505	9289.1618066063
5	74138	25999.604096612214	9314.2597784207
5	74255	26051.040794873532	9352.9476897545
5	74262	26051.577376248126	9353.4429115751
5	74272	26055.736727975387	9355.9086882598
5	74281	26058.295596801007	9348.3493551291
5	74286	26062.606916491002	9350.4342125348
5	74295	26067.016682398087	9348.7441527767
5	74312	26072.317312662815	9338.9688592306
5	74322	26075.465640393875	9324.8657823601
5	74333	26076.192638496	9319.4895212162
5	74340	26081.968288247999	9319.6680879102
5	74363	26088.72923099891	9314.831371372
5	74376	26094.604658124357	9313.0615595201
5	74520	26140.923215492104	9358.9841224587
5	74638	26177.350512508341	9391.9140811374
5	74653	26182.477326656645	9396.3937304855
5	74660	26185.235291109437	9398.6784020745
5	74686	26189.823480143116	9390.9342492729
5	74702	26192.719158824228	9393.1627101647
5	74729	26206.095434914818	9403.9081792441
5	74740	26206.425784427869	9399.3620201826
5	74745	26207.87478783165	9397.2725270632
5	74750	26209.435594363033	9398.8144495816
5	74755	26210.851542851685	9395.072080547
5	74762	26214.785070010467	9391.0695803244
5	74781	26219.705213825051	9382.2566746244
5	74790	26221.188220346372	9381.5294060218
5	74797	26224.551264009772	9371.5530857281
5	74804	26226.885576850938	9364.5861222907
5	74815	26230.492952836867	9345.8480681158
5	74822	26234.528516733762	9341.5114174765
5	74843	26240.56165213644	9344.0569182605
5	74854	26243.621174973581	9336.0773389237
5	74859	26246.539898492845	9331.8007836782
5	74866	26247.938612563644	9331.9124682734
5	74871	26250.953303646205	9331.5288650699
5	74878	26252.6459853411	9321.4350227971
5	74955	26287.869811151441	9355.9249532031
5	74960	26288.681577324033	9356.42457153
5	74971	26291.454289367241	9358.3852614086
5	75014	26302.181300777518	9366.7041365401
5	75019	26303.205949646616	9360.094781811
5	75026	26304.909583604862	9360.1530612729
5	75042	26312.591102124734	9364.1528423609
5	75054	26314.805324704016	9350.0666959731
5	75063	26318.206455790769	9351.2814532
5	75068	26323.721678022778	9352.9165328325
5	75078	26327.532852342291	9337.3660127835
5	75091	26333.081478884796	9341.4493719162
5	75098	26334.833023660748	9341.3664214133
5	75109	26336.016661348664	9340.6352244925
5	75115	26337.997202524619	9339.0585864484
5	75121	26343.168858898076	9341.7481520669
5	75126	26343.991384315313	9340.2462781789
5	75137	26351.038031250722	9337.7583160285
5	75148	26357.686866977891	9341.3825201536
5	75155	26361.863626721408	9335.1295506298
5	75160	26364.655588620773	9318.0080302066
5	75167	26366.766564600684	9317.5996509702
5	75190	26370.568699009105	9319.4110067402
5	75226	26385.486079931041	9326.4564162184
5	75246	26390.853204995548	9326.7964767028
5	75273	26397.586879182002	9329.8871415088
5	75286	26404.865580085738	9315.503198918
5	75312	26419.525906279614	9321.335681088
5	75322	26420.24638237486	9318.1333736764
5	75331	26428.8461705749	9324.182274176
5	75339	26430.209107589316	9305.1861481051
5	75351	26433.32481139098	9307.4283557277
5	75356	26433.399974684809	9303.8308785034
5	75366	26437.650410535487	9307.3895593416
5	75387	26443.323048666641	9304.0112097709
5	75505	26482.813499908192	9340.2724779057
5	75510	26483.589273247906	9324.8565403362
5	75524	26497.946158122701	9335.6125766166
5	75799	26594.947401157525	9417.6867491737
5	75818	26602.396457668217	9422.9042470057
5	75834	26607.687736228569	9426.7181379196
5	75843	26610.590041461894	9419.7528909877
5	75868	26613.795138827578	9421.85650091
5	75875	26616.309617831259	9413.4945515701
5	75884	26619.818564445666	9416.9826918745
5	75897	26627.979390366685	9424.376778196
5	75909	26632.400159002735	9423.0971064974
5	75945	26642.728885025776	9428.0253200183
5	75972	26649.970704785254	9432.1058648734
5	75989	26657.013291467582	9432.4222506254
5	76059	26686.929497713325	9450.9491864746
5	76082	26692.866231565531	9454.4383645022
5	76144	26710.156855629961	9469.4042457471
5	76149	26710.859103521086	9468.743444282
5	76158	26717.25595453875	9467.2237357443
5	76187	26728.722982777153	9471.165412934
5	76197	26729.78565242331	9470.2245060188
5	76208	26732.881616834353	9468.8421249093
5	76242	26742.565697438149	9473.9410610789
5	76251	26745.996647624929	9471.5981081879
5	76266	26752.039936336992	9472.0475743714
5	76284	26757.12179964842	9469.5947551766
5	76310	26768.252593393829	9468.391592933
5	76318	26770.407052747411	9446.6182940097
5	76332	26776.361856576575	9451.5524743617
5	76339	26777.94866892924	9442.8265071456
5	76348	26781.062646814479	9445.3651561125
5	76433	26805.437847668291	9463.6535163877
5	76438	26805.677872214496	9462.1281547035
5	76443	26806.639292110077	9449.2456258326
5	76457	26811.01452945358	9447.6150287832
5	76474	26819.208341570086	9453.6417165865
5	76495	26832.276510562431	9466.102398886
5	76516	26838.417438787922	9471.98507079
5	76568	26855.419487736337	9482.2099480539
5	76835	26949.700633297259	9572.6203999168
5	76843	26955.4513401452	9573.3612489865
5	76856	26968.266318348868	9583.5620880174
5	76869	26971.085336630446	9582.6113376477
5	76877	26972.987271936988	9547.8828194162
5	76887	26974.863112551634	9537.6609042841
5	76892	26975.903743011613	9538.1953958972
5	76900	26981.113828354569	9540.9698387704
5	76921	26987.404933971561	9547.1540352002
5	76946	27003.225875136399	9552.2960698548
5	77272	27131.198999009785	9679.8346718764
5	77277	27131.321569414718	9666.9293713606
5	77283	27132.780148745348	9663.9041301707
5	77293	27140.165706258544	9653.9672507818
5	77305	27144.389198799196	9654.5191305264
5	77310	27147.241594499705	9624.2972511877
5	77315	27147.888899298818	9617.0217814173
5	77324	27150.578509823569	9600.7272774696
5	77340	27155.328626225178	9592.4475304819
5	77346	27156.421858617544	9590.6220597411
5	77356	27159.44545468154	9587.5183724747
5	77363	27160.163062197922	9584.4019000253
5	77372	27160.741301215982	9574.1546041092
5	77377	27168.096346159996	9577.1978501345
5	77398	27177.942721277408	9583.5663293034
5	77623	27261.422014474727	9656.7245703682
5	77642	27263.531846022937	9656.8548122328
5	77647	27266.385221330004	9638.1693712568
5	77652	27271.229002388664	9639.4790802591
5	77659	27275.105646838261	9627.6637588974
5	77693	27289.496941664119	9642.02824024
5	77704	27292.828767190402	9639.7329155854
5	77713	27295.964765671292	9632.3918547159
5	77737	27302.737387346217	9627.6107485737
5	77775	27312.001659688413	9629.5695974559
5	77803	27320.222852776174	9627.9543971619
5	77808	27321.417476191395	9614.4617507548
5	77813	27323.321095769555	9602.7804593708
5	77820	27327.52814748667	9605.9473064001
5	77828	27329.361065623275	9600.9249595689
5	77848	27333.75897322959	9596.7438848837
5	77857	27338.037793787921	9590.6875371049
5	77864	27339.924978884673	9588.9463789649
5	77912	27351.769021262331	9597.6855732481
5	77922	27360.676425738246	9601.8775027959
5	77927	27362.645774916639	9599.1023760912
5	77932	27363.469947345357	9598.5315436393
5	77946	27376.033335625555	9596.735913457
5	77971	27382.194786224408	9597.3092452811
5	77976	27384.614695911606	9575.8131285468
5	77983	27387.422031858661	9573.0300122694
5	78000	27393.350819680855	9576.7188283855
5	78023	27404.191497232367	9573.2862547807
5	78061	27416.20175973598	9561.6996730258
5	78072	27418.638056979949	9561.6534344592
5	78240	27474.410247389715	9615.7437233989
5	78274	27483.305529161622	9623.1348631155
5	78281	27486.40625981785	9626.1906187551
5	78288	27490.173043703592	9627.9019310941
5	78299	27493.69502629987	9625.9097523028
5	78307	27497.58166514568	9628.9729997019
5	78316	27502.579226665193	9625.7711431861
5	78349	27508.392396282017	9629.9097022003
5	78360	27516.948470866588	9635.9075074445
5	78375	27521.830885304804	9640.0998725273
5	78464	27557.841406924303	9671.8772625537
5	78485	27566.080431923146	9664.9184885056
5	78499	27570.753962602279	9663.8234548081
5	78506	27572.69998157318	9662.3422556121
5	78715	27642.792276950537	9730.7940839994
5	78738	27652.902017670155	9739.6614188308
5	78750	27658.138785860967	9743.2107987322
5	78766	27659.272820522147	9738.105022916
5	78771	27661.354836749546	9709.2993223323
5	78776	27661.697239986783	9699.6487990659
5	78784	27664.776397522195	9701.5965461036
5	78799	27670.119414914875	9704.6990651072
5	78804	27670.594137337358	9703.9886736002
5	78811	27680.296882549052	9712.389789518
5	78823	27682.937676452037	9712.1516067013
5	78843	27687.52331710068	9712.2380064178
5	78876	27698.555857815549	9720.5924486762
5	78890	27704.95687877187	9711.013094057
5	78901	27716.148486211551	9703.2796223333
5	78930	27726.094106257849	9708.1707111086
5	79043	27770.49059877814	9751.2473764451
5	79049	27771.235206572106	9749.6873569256
5	79054	27771.852728821612	9740.7549473571
5	79059	27772.43051012332	9735.8806836292
5	79073	27778.444872682675	9740.5439234318
5	79123	27797.520785949096	9759.5882660635
5	79142	27805.420863245378	9765.9240562511
5	79171	27814.046775145834	9770.9616426327
5	79184	27820.48678395388	9771.5382544896
5	79189	27824.165033081003	9774.3690286162
5	79194	27828.171520272569	9772.719985698
5	79205	27834.21643247237	9775.9530412722
5	79226	27837.78646506633	9773.8022184615
5	79237	27841.266719142939	9774.4556916235
5	79244	27846.590167276188	9779.5420798992
5	79255	27849.317093057447	9780.1876504662
5	79265	27854.055998174536	9784.1991846556
5	79313	27874.542541427214	9804.42235382
5	79322	27878.725928110978	9808.256063899
5	79347	27888.375223567847	9800.9566211667
5	79364	27896.79236050675	9805.5395870092
5	79378	27898.533335683417	9807.1098425208
5	79388	27903.570293458894	9810.9929822993
5	79404	27906.890777210425	9802.0441637269
5	79459	27932.455969466691	9826.9062386211
5	79468	27937.166502311409	9824.1735351584
5	79491	27948.434862930202	9826.7599034647
5	79533	27960.8312551019	9825.2597743013
5	79538	27962.240619079142	9824.5097968681
5	79546	27966.581760853463	9811.1085262963
5	79599	27985.670427960702	9813.1595064235
5	79605	27987.240022434154	9811.9834891477
5	79615	27989.226162312854	9813.6173388238
5	79638	27995.037435012434	9817.0240811774
5	79651	27999.186841648174	9816.025652963
5	79667	28004.731651591431	9812.1222582444
5	79672	28006.763752859519	9811.1218033274
5	79681	28012.701256795351	9814.4461752853
5	79686	28013.216797890956	9812.5306985746
5	79693	28016.639715814675	9811.2074627236
5	79712	28023.550898372078	9813.9572050885
5	79730	28029.713787338221	9818.4901791268
5	79735	28031.994065099077	9816.6140201088
5	79740	28034.619145138695	9818.5365453423
5	79745	28035.986979755291	9807.4674913484
5	79753	28039.925368303145	9796.3022519411
5	79758	28041.435061039213	9796.3105344643
5	79767	28045.516517225158	9783.5619217696
5	79780	28051.990440820342	9790.0228889421
5	79801	28055.113381186196	9792.2986327966
5	79811	28058.683737300542	9794.9593633372
5	79818	28059.562344867134	9788.1080944444
5	79862	28077.334502263159	9800.4418977653
5	79868	28079.256534844349	9801.8859375578
5	79883	28091.067340765538	9812.9903756241
5	79929	28104.011327311074	9822.130049087
5	79965	28115.670572656992	9810.1801560181
5	79972	28117.687882613836	9811.0882636312
5	79979	28120.397647913644	9811.1649317228
5	79985	28123.995451317673	9788.6485173933
5	79992	28124.687041086879	9778.5511123682
5	80001	28132.365257970105	9785.5113289865
5	80008	28134.960930453176	9786.3684224229
5	80029	28142.576679483851	9792.6898390234
5	80048	28147.542184849185	9795.2963167134
5	80062	28150.273840665475	9782.9644010835
5	80084	28156.042591181655	9787.2853515502
5	80101	28158.113929494774	9789.0116452991
5	80121	28169.932619812918	9792.151064479
5	80156	28178.41266651685	9791.502444764
5	80163	28179.352274886853	9786.1298899978
5	80176	28185.295108480628	9788.8085539202
5	80341	28239.223729343469	9827.9919364024
5	80356	28241.20173524238	9827.9586277315
5	80361	28241.937961540239	9826.0176887026
5	80371	28244.872054978793	9827.2908801206
5	80405	28254.587759623884	9831.4525137605
5	80410	28255.309471124893	9831.061768208
5	80415	28260.29347157143	9834.9222493727
5	80426	28268.26047416012	9833.5240663945
5	80469	28279.438165842787	9843.0606386588
5	80483	28285.343305796911	9848.8713210422
5	80505	28298.487527375211	9852.2570032535
5	80550	28314.412378319536	9846.046930572
5	80558	28323.761465235851	9852.5779472478
5	80567	28329.1862118298	9851.4475732369
5	80584	28331.292780860915	9848.8750712213
5	80589	28333.210960998349	9849.8488331555
5	80594	28333.946005264227	9849.0257876167
5	80611	28341.945633529225	9854.3049356575
5	80655	28351.696381985351	9859.9965257706
5	80666	28354.068424711659	9857.1790674421
5	80682	28361.242806712405	9863.0095604376
5	80724	28378.375417148943	9879.4430491746
5	80731	28381.290917355169	9881.8157423599
5	80754	28388.256267963773	9877.4476165475
5	80764	28390.07669125919	9877.0301847113
5	80769	28392.181393447339	9876.7078115686
5	80776	28395.753184339497	9872.9213406347
5	80785	28397.707460403539	9872.6104514954
5	80799	28407.21943356822	9881.5838946342
5	80830	28423.567921006728	9890.891997999
5	80842	28435.717919571223	9899.3466671322
5	80859	28438.488160186448	9896.4309030621
5	80867	28441.180408184198	9897.5425378009
5	80892	28449.842215547137	9905.0465633227
5	80909	28457.643668605757	9903.2555491905
5	80950	28474.992899271328	9920.0477563598
5	80958	28477.396545230702	9913.6124534682
5	80973	28484.844610742655	9903.2062332531
5	81023	28508.653184991515	9925.211667602
5	81048	28514.437278445313	9930.0466423068
5	81053	28515.146644863343	9930.6396533365
5	81069	28519.994474303788	9928.4800019713
5	81117	28535.247528515239	9937.3466543857
5	81389	28634.895015002911	10025.764864759
5	81400	28638.618000894306	10028.34911896
5	81421	28641.602475274746	10024.368445845
5	81445	28644.973465730061	10020.388667211
5	81492	28660.05797527127	10027.074372165
5	81510	28664.748010215329	10031.367993227
5	81525	28669.988048663971	10035.445515079
5	81588	28689.240857501825	10054.651189191
5	81593	28690.094800540368	10035.488552817
5	81613	28701.270781905497	10043.76228215
5	81631	28703.327285541914	10043.834472918
5	81636	28705.399040845409	10044.48059851
5	81643	28706.672984414411	10041.149226202
5	81648	28706.987535913706	10033.420635109
5	81654	28709.25706812888	10018.493349064
5	81663	28713.280947741641	10018.4267287
5	81713	28725.398208749745	10025.274341402
5	81720	28732.644123453309	10029.706672729
5	81726	28734.985195336073	10030.857048868
5	81735	28738.727383632155	10030.329955554
5	81825	28765.881105971172	10053.313182489
5	81871	28779.54037235611	10061.701816121
5	81970	28818.386231404175	10096.479643964
5	81999	28829.674745578148	10096.597785582
5	82010	28841.99181204853	10100.958051626
5	82032	28849.117507656607	10104.039739066
5	82149	28900.41866279788	10149.103336276
5	82154	28902.43545520777	10125.599854585
5	82163	28908.779134608257	10124.452228321
5	82204	28914.270488994163	10125.727781502
5	82209	28916.180237726614	10116.151746396
5	82218	28917.830402085571	10112.739562088
5	82272	28937.29407502597	10127.733225852
5	82283	28939.619589682524	10126.466535463
5	82288	28940.126544104932	10124.870034138
5	82296	28944.009784640508	10124.313384026
5	82309	28947.96481511284	10109.266343067
5	82402	28977.472516523349	10134.877634773
5	82415	28987.743989619396	10143.101922695
5	82665	29078.622461595007	10229.228271014
5	82671	29081.060512799191	10228.029904831
5	82678	29085.821038175985	10229.017974534
5	82691	29088.177828535274	10227.503950334
5	82702	29091.758821801416	10218.058725806
5	82713	29100.851210053073	10222.895747986
5	82774	29124.074730563758	10240.362783309
5	82784	29127.249235374849	10242.249819507
5	82789	29130.191540470675	10238.549293226
5	82802	29133.210243351844	10222.843205129
5	82834	29145.608350776783	10222.592643431
5	82888	29160.807223417095	10218.700474951
5	82902	29167.472791428783	10220.939099144
5	82911	29171.640322886601	10219.943477369
5	82924	29175.691954591366	10222.2957027
5	82929	29176.558608267719	10211.692052639
5	82945	29185.788682765834	10207.194321731
5	83012	29212.160201545799	10232.225954227
5	83025	29215.275977098051	10219.821859129
5	83035	29219.925182697411	10222.902694874
5	83048	29223.852061834	10211.013844629
5	83059	29226.468285215828	10213.529438205
5	83069	29230.328667915112	10213.639340849
5	83084	29233.862870679329	10214.04607303
5	83129	29247.868080949669	10224.979964492
5	83138	29254.240001395031	10219.547535845
5	83148	29257.006016892363	10221.340795569
5	83266	29314.230121694781	10277.617858444
5	83273	29317.448463341718	10276.930443669
5	83297	29324.992708154337	10281.759794953
5	83304	29325.460227622258	10281.900918149
5	83312	29329.61755786901	10282.753906753
5	83323	29330.908492406924	10278.466262568
5	83328	29334.415169877503	10269.421972368
5	83340	29341.20353078457	10272.463630534
5	83368	29356.615610571051	10285.183239267
5	83373	29356.883824388357	10284.075335456
5	83378	29357.147912471777	10281.228250565
5	83385	29359.788636633722	10278.341015094
5	83396	29360.552218115495	10274.772065337
5	83403	29361.690903563158	10274.136636582
5	83408	29362.636625641949	10274.259595325
5	83413	29366.019130172242	10265.993911479
5	83422	29371.737121578784	10270.816594719
5	83467	29382.247028712014	10275.082433695
5	83474	29386.082679260013	10262.726567625
5	83485	29392.468715872513	10257.44794133
5	83492	29394.675485641854	10250.079507669
5	83503	29396.849908656737	10237.421241322
5	83521	29405.997777833308	10235.609457394
5	83596	29433.626956271571	10255.089674225
5	83603	29436.906999719398	10257.902332435
5	83612	29444.075252359955	10260.229986324
5	83626	29448.800978287686	10260.946487955
5	83639	29452.847161236642	10259.065975553
5	83704	29472.72890408776	10269.210613101
5	83904	29551.782065404875	10346.076267069
5	83917	29556.018928436159	10340.953853894
5	83934	29566.971991784246	10347.960912858
5	83954	29571.779635529769	10344.692107378
5	83964	29583.158790163578	10355.567474655
5	83969	29585.649016081188	10357.018156999
5	83976	29585.967735790849	10334.96603223
5	83993	29590.350712199423	10325.942053311
5	84006	29600.82608736393	10327.75910129
5	84022	29602.968669822982	10328.396906159
5	84028	29607.047304562458	10332.213343993
5	84041	29611.656187435285	10336.063171902
5	84077	29623.873307966943	10347.612016795
5	84086	29628.22436198423	10350.126204683
5	84485	29772.822666984363	10490.497276755
5	84492	29776.574109397682	10494.223800451
5	84542	29791.957842019952	10508.142907275
5	84558	29796.890802442442	10503.409789024
5	84578	29808.091324284838	10510.922294521
5	84612	29822.158921697697	10519.240149988
5	84623	29825.37442450386	10511.064038718
5	84704	29850.782251578894	10508.041776993
5	84719	29853.284627969747	10509.659834338
5	84726	29858.105313370919	10508.204727618
5	84737	29861.663656053035	10503.029346621
5	84781	29875.894007926322	10511.960718141
5	84795	29882.194850826636	10505.261231801
5	84913	29921.257730323048	10543.332031692
5	84920	29924.399905276222	10535.327628193
5	84936	29928.142704362696	10537.959895805
5	85002	29943.244328828185	10531.644065099
5	85015	29946.891057022884	10527.533018272
5	85020	29947.022341665176	10522.120976654
5	85025	29948.268797173123	10520.963228041
5	85032	29951.0961882011	10518.778377126
5	85039	29957.177360546896	10518.181648348
5	85059	29963.723785908839	10520.106872824
5	85090	29972.818115116203	10528.629659239
5	85119	29987.304588639464	10536.684194921
5	85153	29997.637985652561	10545.109166638
5	85163	29998.143436282737	10539.36770722

