version 2
run Third-n5-3-20191016-14:53:48-6980
attr configname Third-n5
attr datetime 20191016-14:53:48
attr experiment Third-n5
attr inifile omnetpp.ini
attr iterationvars ""
attr iterationvarsf ""
attr measurement ""
attr network org.omnetpp.queueing.Pizza
attr processid 6980
attr repetition 3
attr replication ""
attr resultdir results
attr runnumber 3
attr seedset 3
param **.PS.maxInventoriedPS 5
param **.U1.interArrivalTime exponential(4s)
param **.U2.interArrivalTime exponential(6s)
param **.PS.serviceTimeForInventoryU1 exponential(1.4s)
param **.PS.serviceTimeForInventoryU2 exponential(1.4s)
param **.PS.serviceTimeDirectU1 exponential(1.8s)
param **.PS.serviceTimeDirectU2 exponential(1.8s)
param **.PS.probabilityProducing 0.8
param **.CS.serviceTimeU1 exponential(2.3s)
param **.CS.serviceTimeU2 exponential(2.3s)

vector 0 Pizza.EntryQueueU1 queueLength:vector ETV
attr interpolationmode sample-hold
attr title "queue length, vector"
vector 1 Pizza.CS queueLength:vector ETV
attr interpolationmode sample-hold
attr title "queue length, vector"
vector 2 Pizza.EntryQueueU2 queueLength:vector ETV
attr interpolationmode sample-hold
attr title "queue length, vector"
vector 3 Pizza.sink lifeTime:vector ETV
attr interpolationmode none
attr title "lifetime of arrived jobs, vector"
attr unit s
vector 4 Pizza.sink lifeTimeU2:vector ETV
attr interpolationmode none
attr title "lifetime of arrived jobs, vector"
attr unit s
0	0	0	0
0	5	3.20112956357	1
0	9	4.576191196757	2
0	11	5.675626581148	1
0	16	5.771028807239	0
0	45	13.513914581795	1
0	50	15.519746693095	0
0	75	28.058800148358	1
0	76	28.404248422631	0
0	82	29.632785295467	1
0	86	31.669366481595	2
0	89	32.703376849815	1
0	95	33.805188651831	2
0	97	35.578943236532	1
0	103	35.600128806874	2
0	105	36.778971972121	1
0	114	38.909313314564	2
0	115	38.942453266846	1
0	123	41.356956689446	2
0	124	41.441959453527	1
0	129	42.191067130228	0
0	160	49.550962940749	1
0	163	52.13406287651	0
0	171	54.249822005319	1
0	172	54.671023669702	0
0	179	55.910966697763	1
0	186	58.267160914631	2
0	187	58.694727187521	1
0	193	59.379014306593	2
0	194	59.580043557734	1
0	202	60.427509355297	2
0	204	60.532993129268	3
0	205	61.094917926583	2
0	213	65.681528801339	3
0	216	65.982846726262	4
0	219	66.848143045735	3
0	225	66.870304331455	4
0	226	67.090738904294	3
0	235	68.94412076551	2
0	242	71.463750037362	1
0	248	71.589384816128	2
0	249	72.496149942904	1
0	255	73.767856047212	0
0	265	76.502181822169	1
0	266	76.748182027797	0
0	274	81.964265517605	1
0	276	82.958356431789	0
0	282	85.981099971297	1
0	285	87.294237803253	0
0	292	89.134296490747	1
0	295	91.308038413801	0
0	308	94.94664521255	1
0	311	96.198958339869	2
0	315	98.62888713478	3
0	316	98.815047837517	2
0	324	99.409120689495	3
0	326	99.567903279745	4
0	328	100.186724081335	5
0	329	100.978659053088	4
0	334	101.094477301941	3
0	342	101.8393332075	2
0	349	105.986931744488	1
0	357	107.30218974293	0
0	436	142.648174702942	1
0	440	144.216682968072	0
0	457	151.133390644199	1
0	458	151.350142043509	0
0	492	164.569179009162	1
0	496	165.879278313146	2
0	497	166.003717965448	1
0	502	166.234745712793	0
0	508	168.224261012937	1
0	510	169.86581494663	0
0	519	171.284852474933	1
0	523	173.597009224544	2
0	530	181.299927856041	3
0	532	182.995569538346	2
0	538	183.127243311526	1
0	544	183.963045722286	0
0	557	188.644305655978	1
0	561	191.438963529118	2
0	563	191.746650971945	3
0	564	191.920139748335	2
0	569	192.068037398755	1
0	581	197.023899679796	0
0	591	198.241365704769	1
0	593	200.53470314695	2
0	597	202.808058076067	3
0	603	206.643862474051	4
0	604	207.043572287995	3
0	609	208.21134044765	2
0	615	208.509895077025	3
0	616	208.952596439299	2
0	621	209.334764493594	1
0	626	209.407024975947	0
0	646	212.353522467393	1
0	647	212.894093138947	0
0	660	217.100215347315	1
0	666	218.919771774041	2
0	671	220.990932776408	1
0	676	221.696958138285	0
0	690	225.226157909216	1
0	693	226.930213492394	0
0	713	231.089823856565	1
0	724	235.874638840226	0
0	731	237.547549974653	1
0	732	237.628850643794	0
0	747	244.990624530225	1
0	749	247.075995370496	2
0	751	247.247915656902	3
0	755	249.844922269761	2
0	761	252.405816584397	1
0	766	253.362661022523	0
0	778	255.016891606028	1
0	779	255.119921753279	0
0	790	256.012462189824	1
0	794	259.105651443813	0
0	812	265.571925461779	1
0	813	266.249889714128	0
0	832	274.810802306325	1
0	833	278.378653701367	0
0	845	282.750385931025	1
0	846	284.599402003437	0
0	852	286.340987730903	1
0	853	286.354803077151	0
0	864	289.520183985585	1
0	866	289.698107428796	2
0	867	289.887180701825	1
0	873	292.166774733384	0
0	879	294.191489252394	1
0	880	294.461102078477	0
0	893	298.029490292776	1
0	898	301.415604580479	2
0	899	302.29344228879	1
0	908	303.594097774817	0
0	915	303.805781301573	1
0	916	305.868636626847	0
0	922	305.906763298031	1
0	924	307.538840565754	0
0	930	307.71589323683	1
0	931	309.688928156601	0
0	937	310.383559625748	1
0	939	312.39406884559	2
0	942	314.612668362469	1
0	947	315.337738475746	0
0	953	316.322812402247	1
0	954	318.524564212203	0
0	969	322.195515876856	1
0	971	322.356144107165	2
0	973	322.666800863821	3
0	979	328.159067312327	4
0	981	330.111883008247	5
0	984	331.127004730925	4
0	993	335.374565724959	5
0	996	337.575095680756	4
0	1003	338.468571623404	5
0	1004	338.786987910052	4
0	1013	342.141728352788	5
0	1014	348.180428144326	4
0	1019	348.278192795742	3
0	1027	349.193244842377	2
0	1032	349.313557942726	1
0	1037	349.329006412742	0
0	1049	351.977736108605	1
0	1051	352.323420243275	2
0	1052	353.070260450377	1
0	1058	353.198348259511	2
0	1060	355.405961417564	3
0	1062	357.450765958382	2
0	1068	358.365233939397	1
0	1077	358.791303882562	0
0	1097	364.025415028534	1
0	1100	365.99097262788	2
0	1101	366.035872094933	1
0	1106	366.066161125573	0
0	1121	368.678582387356	1
0	1128	373.533026912241	2
0	1129	375.759535030401	1
0	1136	376.154057744138	2
0	1137	376.840771974888	1
0	1142	377.608708481659	0
0	1158	379.472874895442	1
0	1160	379.844763014952	2
0	1162	381.597045837807	1
0	1168	382.866298202302	0
0	1174	385.316472787296	1
0	1178	387.621707166438	0
0	1184	388.520658445009	1
0	1189	390.043842821962	2
0	1191	393.231095928042	3
0	1193	396.24214179394	4
0	1195	397.69815665015	5
0	1197	398.270141586388	6
0	1198	399.414416498447	5
0	1203	399.861346395536	4
0	1208	400.822183523908	3
0	1215	402.164895649308	4
0	1217	403.414335363107	3
0	1223	403.54208710531	4
0	1226	404.775349056937	3
0	1231	404.84136380195	2
0	1246	409.891493681348	1
0	1254	412.029120311401	0
0	1275	416.341728983656	1
0	1287	424.011769581137	0
0	1311	431.49992870056	1
0	1312	431.565721561343	0
0	1340	437.642742993971	1
0	1344	438.401296661456	2
0	1347	442.430184487971	1
0	1354	444.535845095689	2
0	1356	445.9488052751	3
0	1357	448.834474373464	2
0	1362	448.970048902488	1
0	1369	450.068497418842	0
0	1378	452.137644182196	1
0	1385	455.939252557723	0
0	1398	459.524781200871	1
0	1400	459.874765529997	0
0	1425	468.08431674137	1
0	1430	471.382256439213	0
0	1458	479.462952124018	1
0	1462	482.50284922731	2
0	1463	487.944249690384	1
0	1468	488.907642126274	0
0	1479	491.313986354229	1
0	1483	493.702174988766	0
0	1489	495.144889710054	1
0	1492	496.310253048542	0
0	1498	497.453697815221	1
0	1500	498.112700376354	2
0	1504	498.884669362663	3
0	1505	499.118472521607	2
0	1511	499.160226533569	3
0	1514	499.663214494548	4
0	1517	500.443997980066	3
0	1523	501.036796695751	4
0	1524	503.165218953259	3
0	1531	505.347985122042	4
0	1532	505.644208964829	3
0	1537	507.502930291313	2
0	1545	508.03714695895	3
0	1546	508.262482917449	2
0	1552	508.838299366655	1
0	1559	510.59395867839	2
0	1561	511.068022294791	3
0	1562	514.476408787806	2
0	1567	515.677223494018	1
0	1573	516.446367926009	0
0	1579	516.587411687342	1
0	1582	517.169727640572	0
0	1603	521.529816260426	1
0	1608	524.044247118461	2
0	1612	526.399401490311	3
0	1616	527.544489899755	4
0	1619	528.931403411678	3
0	1624	530.356816414435	2
0	1629	530.407047191979	1
0	1634	530.632184610466	0
0	1647	532.288041828405	1
0	1648	532.948866293789	0
0	1659	534.484485427196	1
0	1662	534.810116610784	2
0	1664	537.236255024394	1
0	1674	540.881132322948	2
0	1676	540.886425949711	3
0	1677	540.975112588058	2
0	1682	541.180712742465	1
0	1688	542.588283868596	0
0	1695	544.018693105278	1
0	1697	545.258384092876	0
0	1704	548.482213428623	1
0	1705	548.765535220172	0
0	1712	550.780337832941	1
0	1714	550.851578955383	2
0	1715	551.856187874028	1
0	1720	554.609181865819	0
0	1741	558.051138629411	1
0	1744	563.248589940566	0
0	1755	564.315910023527	1
0	1757	564.885428947409	0
0	1787	573.830147535689	1
0	1788	574.594537231136	0
0	1811	580.65575612784	1
0	1814	582.413819396285	2
0	1816	582.831255281478	3
0	1819	585.287566995403	2
0	1825	585.622044933423	3
0	1828	588.951358327599	4
0	1830	589.485461857212	5
0	1833	592.161504512391	4
0	1842	593.210406912862	5
0	1843	593.283208790746	4
0	1849	593.710232777633	5
0	1850	594.928534243241	4
0	1856	597.73638501769	3
0	1861	597.979396668702	2
0	1872	601.335254574062	3
0	1874	602.655370349741	4
0	1876	603.108406240805	5
0	1877	606.836565958661	4
0	1882	607.338570986659	3
0	1890	609.702981925647	2
0	1896	610.855856418084	3
0	1897	611.373855288739	2
0	1906	614.579722319491	1
0	1911	615.786046225799	0
0	1921	616.963667936192	1
0	1923	618.194932444868	0
0	1935	621.883037786578	1
0	1937	622.206253231846	2
0	1940	624.221633265875	1
0	1945	625.851419648226	0
0	1962	629.133561121175	1
0	1965	631.479409386033	2
0	1967	631.62990660297	3
0	1969	632.534192954942	4
0	1970	635.034285977556	3
0	1977	636.985418273032	2
0	1982	638.081253516842	1
0	1988	639.511099117412	0
0	2015	642.28801750981	1
0	2018	647.273562184234	0
0	2029	649.729491565706	1
0	2031	651.810357760894	0
0	2042	653.229859805754	1
0	2044	653.285590591251	2
0	2046	654.654373720266	1
0	2052	656.204399528768	0
0	2058	656.41088372718	1
0	2059	656.570241429827	0
0	2068	659.862334515763	1
0	2073	664.035183552324	2
0	2075	664.435626594961	1
0	2080	664.74033051163	0
0	2093	666.545879331228	1
0	2095	667.349762742058	0
0	2104	671.375949420017	1
0	2106	672.087706235924	2
0	2108	672.8146237183	3
0	2109	675.270627677259	2
0	2116	681.878804013739	3
0	2117	684.077815840747	2
0	2126	685.407052462638	3
0	2131	688.208973933048	4
0	2139	690.346061857633	5
0	2140	690.465571289826	4
0	2145	690.479791853848	3
0	2155	693.252043425764	4
0	2156	693.333802766384	3
0	2163	693.70120654848	2
0	2171	697.499046143975	3
0	2173	698.437260877389	4
0	2176	703.376651006499	3
0	2183	703.861174006716	4
0	2184	706.41393420768	3
0	2190	708.297181836929	2
0	2195	713.777539535462	1
0	2200	714.524860045673	0
0	2206	715.865094229525	1
0	2213	719.308927364387	0
0	2225	723.6980425779	1
0	2227	725.998831826599	2
0	2228	726.656319437607	1
0	2233	727.305600421039	0
0	2246	730.310455776549	1
0	2249	736.489849500654	0
0	2265	738.025736672052	1
0	2267	739.4681193192	0
0	2282	743.432354258292	1
0	2283	744.297267868867	0
0	2300	746.803364371555	1
0	2303	748.294535783464	0
0	2322	752.460574463056	1
0	2325	752.80508414841	0
0	2331	754.448602504335	1
0	2333	757.551196159711	0
0	2347	759.512967291254	1
0	2351	761.212301953719	0
0	2357	761.41785379513	1
0	2368	774.53478874926	2
0	2369	776.240159245287	1
0	2375	776.269414526403	2
0	2378	777.574863328512	1
0	2384	779.278689246014	2
0	2387	780.828099360982	1
0	2393	781.747735538791	2
0	2398	782.987615844385	3
0	2401	784.173747046301	4
0	2402	785.82288644352	3
0	2408	788.926149339716	4
0	2411	789.867615643065	5
0	2415	793.250892782225	4
0	2421	794.879247551874	5
0	2424	797.789233442434	4
0	2430	797.815334162444	5
0	2433	801.935766444326	6
0	2434	802.256560842674	5
0	2442	803.864559288008	4
0	2448	804.091217344307	3
0	2456	805.709017480279	4
0	2459	807.437883653895	3
0	2464	807.490691564683	2
0	2469	807.717739073895	1
0	2478	808.959996359339	2
0	2479	809.152898860238	1
0	2488	812.023385747259	0
0	2511	822.170862271505	1
0	2512	822.323381317526	0
0	2539	829.23075740102	1
0	2541	830.121294436498	2
0	2543	831.066430772673	3
0	2549	834.264270899419	4
0	2553	834.976382408673	5
0	2555	836.487396294534	6
0	2556	838.721554188162	5
0	2562	839.972102497704	4
0	2568	842.10483655043	3
0	2574	847.414475773907	2
0	2581	851.285155514668	1
0	2586	851.710422597492	0
0	2595	855.529034970688	1
0	2596	855.586617999095	0
0	2603	857.637282999725	1
0	2605	858.140544748968	2
0	2607	861.505201422647	1
0	2614	862.114623515504	0
0	2621	862.491027563102	1
0	2625	863.343480628152	2
0	2629	871.479137682899	3
0	2631	871.792990403485	4
0	2636	873.662761451919	3
0	2642	873.785431661129	4
0	2645	876.742865047842	3
0	2651	877.304114780446	4
0	2652	877.65472267736	3
0	2658	878.125360869392	2
0	2664	878.391084235399	3
0	2667	879.915325304157	4
0	2670	881.309286981417	5
0	2671	883.168724697945	4
0	2678	888.106914507477	3
0	2687	889.348686910018	2
0	2693	890.709374653691	1
0	2698	892.392148653079	0
0	2709	893.223688944176	1
0	2710	893.998738754543	0
0	2721	894.431586624174	1
0	2722	895.673424977593	0
0	2768	909.143294619904	1
0	2771	912.486917693458	0
0	2782	914.578565144161	1
0	2783	914.91532939399	0
0	2787	916.121742879008	1
0	2789	916.211505904494	2
0	2791	917.108265981558	3
0	2795	917.369326396128	4
0	2805	922.809536148347	3
0	2812	923.072176039769	2
0	2819	924.569730894196	1
0	2831	927.231291920725	0
0	2847	930.079097757432	1
0	2848	933.688214499391	0
0	2878	942.248444051911	1
0	2879	942.354140221784	0
0	2899	945.719226269041	1
0	2903	947.247515656424	2
0	2904	947.806439539505	1
0	2912	952.091649855705	0
0	2925	957.238837908492	1
0	2927	959.047388545844	2
0	2931	961.186916876165	3
0	2936	962.824819557328	2
0	2943	964.514439487797	1
0	2949	965.177711090148	0
0	2957	966.973840923612	1
0	2958	967.564908547213	0
0	2971	972.459743359003	1
0	2975	975.071924776485	2
0	2976	977.094061454074	1
0	2983	977.990961435305	2
0	2984	978.177462689456	1
0	2996	984.537231030267	2
0	2997	985.023696043602	1
0	3004	986.367572498031	2
0	3007	987.091898908761	1
0	3012	988.098046018598	0
0	3031	996.256695503142	1
0	3033	996.886699408394	2
0	3035	998.164757997643	3
0	3036	998.31838631789	2
0	3041	999.139343711911	1
0	3048	999.956495726472	2
0	3050	1001.777363472721	1
0	3055	1002.110865352978	0
0	3082	1006.605088681731	1
0	3084	1006.991901587384	2
0	3085	1007.28740637702	1
0	3091	1008.423050665496	2
0	3092	1009.249053294666	1
0	3099	1010.077981897556	0
0	3109	1013.067498652531	1
0	3118	1016.210013609732	2
0	3120	1017.657812357367	1
0	3127	1020.064880097926	2
0	3130	1021.39520001891	1
0	3136	1021.791349248294	2
0	3143	1027.171165313313	3
0	3144	1027.294438859794	2
0	3149	1029.144418017942	1
0	3156	1030.045117829225	2
0	3157	1030.247665492483	1
0	3163	1030.466957225597	2
0	3168	1035.752627191244	1
0	3174	1036.263028397107	2
0	3176	1038.292482927209	1
0	3184	1040.115422162944	0
0	3199	1041.638373454025	1
0	3201	1044.435522530359	0
0	3208	1046.036561405587	1
0	3209	1046.429928945951	0
0	3217	1049.982982884636	1
0	3220	1050.412136353042	2
0	3222	1050.805240141706	3
0	3223	1052.996075761785	2
0	3232	1054.922863525332	3
0	3234	1055.453471542129	4
0	3235	1057.246813932638	3
0	3242	1059.158995011728	4
0	3244	1063.615187585023	5
0	3246	1064.112672002821	6
0	3251	1067.311247940718	5
0	3258	1069.219327622998	6
0	3259	1076.702383718784	5
0	3264	1077.798724864531	4
0	3273	1082.268888443226	5
0	3277	1082.884022699163	6
0	3279	1083.160063292437	7
0	3281	1084.954699386745	8
0	3282	1086.512873370247	7
0	3288	1088.004894283899	6
0	3293	1088.295100007962	5
0	3302	1089.731674979433	6
0	3305	1091.28515833741	7
0	3308	1097.252367129964	6
0	3315	1099.39679561211	7
0	3316	1101.041437330664	6
0	3321	1101.344776000151	5
0	3326	1101.5623605243	4
0	3333	1102.032589728228	5
0	3334	1102.875063203111	4
0	3341	1104.384307556781	5
0	3343	1105.167070619736	4
0	3350	1107.427617484078	5
0	3351	1107.833105843476	4
0	3358	1108.936847354256	5
0	3359	1109.331787490855	4
0	3365	1110.274160618397	3
0	3372	1111.235178732485	4
0	3374	1112.035359713637	3
0	3379	1112.192155734996	2
0	3384	1114.067648112379	1
0	3389	1114.142632734355	0
0	3401	1116.064256168316	1
0	3405	1119.346864490411	2
0	3406	1120.896465011975	1
0	3415	1125.487839276854	2
0	3419	1130.729322643502	3
0	3420	1131.156693386434	2
0	3428	1135.869855076051	1
0	3433	1136.08363301829	0
0	3439	1136.520255143257	1
0	3440	1137.248580018099	0
0	3446	1137.785626378091	1
0	3456	1142.964246981176	0
0	3462	1144.122258893188	1
0	3464	1144.784959167815	2
0	3468	1146.239734842423	3
0	3470	1148.978991251032	4
0	3474	1149.849194518171	5
0	3477	1154.309934715123	4
0	3485	1155.38392135306	5
0	3487	1157.438459757864	6
0	3489	1161.011734721378	7
0	3491	1161.063435794343	8
0	3492	1161.319812504668	7
0	3496	1162.775117843647	8
0	3499	1164.024668207048	7
0	3503	1164.849778412434	8
0	3507	1165.282993881371	9
0	3509	1165.321996810086	10
0	3510	1166.121680349766	9
0	3515	1167.519800772177	8
0	3520	1169.124663863043	7
0	3524	1171.52833806128	8
0	3529	1174.715427299909	9
0	3530	1176.505937683973	8
0	3536	1176.724502257473	9
0	3539	1177.458502483573	8
0	3545	1179.81640114845	9
0	3548	1181.99422080024	8
0	3553	1182.65868407168	7
0	3561	1186.879931915817	8
0	3563	1189.493199978359	9
0	3565	1189.993561984919	10
0	3566	1193.63912520254	9
0	3572	1194.620328643981	8
0	3579	1196.16044960403	9
0	3581	1199.1919083525	10
0	3583	1200.261607975863	11
0	3587	1202.451567479187	12
0	3588	1204.137934221238	11
0	3598	1207.887934783919	12
0	3599	1208.384871236247	11
0	3604	1208.458081437435	10
0	3609	1208.741002874422	9
0	3617	1209.9628358505	10
0	3619	1212.008115885614	11
0	3620	1212.9505993083	10
0	3628	1216.635872215822	9
0	3634	1216.676260489277	10
0	3639	1219.393657946935	9
0	3647	1220.841589350333	8
0	3652	1220.917028231683	7
0	3659	1224.324685908313	6
0	3665	1226.824494856481	5
0	3670	1227.692530724043	4
0	3675	1228.625421765144	3
0	3679	1229.415893891564	4
0	3684	1232.497047368784	5
0	3685	1233.159832972716	4
0	3691	1234.80820349514	3
0	3696	1235.047972547717	2
0	3704	1237.886740367264	3
0	3706	1237.901933173176	4
0	3709	1241.511636068788	3
0	3713	1241.929071603615	4
0	3720	1248.249344870624	3
0	3726	1253.640755992063	4
0	3728	1254.801488626806	5
0	3730	1255.308774476139	6
0	3734	1256.37269247762	7
0	3739	1259.62871417211	8
0	3741	1260.866230748272	9
0	3744	1265.567579851882	8
0	3750	1265.946842756404	7
0	3757	1267.797221705598	6
0	3762	1267.819773749298	5
0	3769	1269.068381973798	6
0	3772	1270.011630191853	7
0	3777	1271.328287191095	8
0	3778	1271.411238442558	7
0	3788	1275.258590590808	8
0	3789	1275.309991501541	7
0	3794	1275.60510398063	6
0	3805	1276.425533641896	7
0	3806	1278.494377210692	6
0	3811	1279.865878704426	5
0	3818	1282.37116908885	4
0	3832	1285.87929933419	5
0	3834	1286.207684409412	4
0	3841	1289.152461926675	5
0	3844	1292.164797094247	4
0	3850	1295.306662594727	3
0	3857	1297.050275293088	4
0	3859	1297.119821531736	5
0	3862	1298.039795479171	4
0	3868	1299.055730483783	5
0	3869	1299.555759097032	4
0	3877	1301.401892393344	5
0	3878	1304.984583695973	4
0	3886	1307.218851814998	3
0	3899	1316.494076690971	2
0	3904	1317.025686970155	1
0	3909	1318.047788847426	0
0	3915	1318.319526801257	1
0	3916	1320.921326465581	0
0	3922	1321.232036911736	1
0	3923	1321.405007115224	0
0	3929	1322.156303511993	1
0	3930	1322.194492495089	0
0	3934	1326.401794716027	1
0	3939	1326.823371606844	2
0	3940	1327.413449979973	1
0	3945	1327.823480775182	0
0	3963	1333.532261926679	1
0	3965	1334.359907171088	0
0	3982	1335.499283955603	1
0	3983	1336.933845747717	0
0	4014	1345.420334133999	1
0	4018	1347.103458386061	2
0	4023	1349.996905726183	1
0	4028	1350.419916645423	0
0	4034	1350.686131653569	1
0	4035	1351.308135119479	0
0	4064	1365.146720293443	1
0	4068	1367.719523872188	2
0	4069	1370.955549969046	1
0	4075	1371.145990826502	2
0	4078	1371.783019807596	3
0	4080	1374.651071775936	2
0	4086	1375.381716212521	1
0	4091	1376.297746596783	0
0	4097	1376.315366762678	1
0	4099	1376.891226095616	2
0	4100	1377.039529908536	1
0	4111	1381.917699324265	0
0	4129	1384.093804194173	1
0	4132	1385.45442275818	0
0	4152	1392.324922269192	1
0	4153	1392.537776071815	0
0	4164	1394.188399425588	1
0	4170	1399.639362647114	2
0	4173	1401.882606262507	1
0	4181	1404.195463020597	2
0	4183	1404.516659544107	3
0	4185	1404.709179385405	4
0	4189	1406.828341030705	3
0	4195	1408.101588880395	2
0	4201	1408.419479669836	3
0	4203	1409.016294223648	2
0	4210	1411.30411964951	1
0	4216	1416.347559386173	0
0	4225	1418.086469285115	1
0	4226	1418.634215713407	0
0	4233	1420.108370628857	1
0	4234	1420.522959618085	0
0	4242	1423.027676628184	1
0	4243	1423.529209289759	0
0	4269	1431.53751793606	1
0	4271	1432.579785591794	2
0	4273	1433.435527398431	3
0	4278	1435.388309920749	4
0	4279	1437.400440154053	3
0	4286	1439.086821432181	4
0	4289	1440.500380226864	3
0	4294	1440.674163358129	2
0	4300	1441.08549153773	3
0	4303	1443.489206758876	2
0	4311	1445.050123971934	3
0	4313	1445.318090997303	4
0	4315	1445.620615829753	5
0	4316	1445.972120521162	4
0	4322	1446.593296643341	3
0	4332	1449.692956313117	4
0	4333	1450.675357573743	3
0	4339	1450.776844881329	4
0	4343	1451.328923541223	5
0	4345	1451.718358204637	4
0	4352	1452.089237391488	3
0	4358	1452.589862941467	2
0	4363	1452.746740912156	1
0	4372	1456.757378028536	0
0	4398	1460.553927484978	1
0	4402	1463.841412623763	2
0	4404	1464.16020718236	3
0	4405	1464.6693919558	2
0	4410	1465.321533412821	1
0	4415	1466.527530961683	0
0	4429	1467.825077914346	1
0	4430	1469.395406244023	0
0	4437	1471.033806249047	1
0	4439	1471.852571310593	2
0	4442	1473.96196990787	1
0	4447	1474.462287835404	0
0	4464	1475.315835887943	1
0	4468	1477.638468539067	0
0	4474	1477.823447349147	1
0	4477	1478.399626398473	0
0	4494	1483.350531346948	1
0	4495	1486.491242767925	0
0	4508	1487.950870905182	1
0	4512	1490.752840309231	2
0	4516	1496.734525758083	3
0	4518	1496.7438100237	4
0	4520	1497.908702578626	5
0	4522	1498.915821365974	6
0	4525	1499.541514492516	5
0	4530	1499.701917833311	4
0	4537	1500.666805963624	3
0	4544	1500.83640812699	2
0	4550	1500.89214647476	3
0	4552	1501.942515932988	4
0	4554	1502.383088489654	5
0	4558	1503.138677377906	4
0	4564	1503.163624037611	5
0	4568	1504.330487603645	4
0	4574	1504.490856467176	5
0	4577	1505.579112721403	4
0	4583	1506.910976525713	3
0	4589	1506.974798454953	4
0	4591	1509.675245304723	3
0	4597	1510.77189945707	4
0	4602	1512.592904153744	3
0	4608	1513.497281570237	4
0	4609	1513.700470172721	3
0	4617	1516.041821999006	4
0	4619	1517.396844743903	5
0	4622	1518.707800218453	6
0	4623	1519.699110145969	5
0	4629	1519.784700191903	6
0	4630	1520.795169659514	5
0	4636	1521.237151129587	4
0	4642	1521.309736423658	5
0	4645	1522.668384201997	4
0	4650	1522.990986397811	3
0	4655	1523.463747627073	2
0	4661	1524.801506453995	1
0	4672	1526.645788481649	2
0	4674	1527.004181332379	3
0	4679	1528.341995172956	2
0	4685	1528.770165423849	3
0	4688	1530.055159660147	2
0	4696	1530.572914887247	1
0	4702	1531.831861544987	0
0	4712	1534.685915977455	1
0	4714	1536.85010076475	2
0	4717	1537.407505396896	1
0	4723	1537.607203267443	2
0	4726	1538.901877121608	1
0	4735	1539.58966212753	0
0	4741	1540.052235271886	1
0	4743	1541.898810174999	2
0	4745	1543.378929658859	3
0	4746	1546.487426849177	2
0	4751	1546.566339476912	1
0	4757	1547.013420232374	0
0	4772	1551.055845227922	1
0	4775	1552.184885398089	2
0	4776	1552.882614181974	1
0	4782	1553.927356176781	2
0	4783	1554.737193452988	1
0	4795	1564.327099209654	0
0	4817	1566.28048465417	1
0	4818	1566.328714471201	0
0	4824	1566.355633331112	1
0	4827	1567.409814221026	2
0	4829	1570.462040040661	3
0	4832	1574.524319355015	2
0	4839	1578.184645484175	3
0	4840	1579.107676650848	2
0	4845	1579.542889981311	1
0	4851	1579.795715238592	2
0	4852	1580.123670833071	1
0	4857	1580.42994562664	0
0	4904	1592.608770103359	1
0	4908	1593.673366224542	2
0	4909	1594.566977403493	1
0	4915	1597.059414529666	0
0	4928	1599.726970220868	1
0	4929	1599.970390422986	0
0	4958	1608.379167167223	1
0	4959	1608.833164976161	0
0	4966	1609.618840056817	1
0	4967	1610.328649594213	0
0	4976	1611.015097097997	1
0	4978	1611.411607304615	2
0	4981	1612.607342561446	1
0	4990	1613.719750288246	0
0	5004	1622.081190025523	1
0	5008	1624.419543812852	2
0	5013	1628.303123142156	1
0	5018	1628.610893189901	0
0	5048	1635.886586397482	1
0	5049	1636.225624530181	0
0	5056	1637.691944885889	1
0	5057	1638.122579199333	0
0	5063	1639.650684344098	1
0	5067	1640.499095907957	0
0	5079	1641.820595947756	1
0	5081	1642.675745798535	2
0	5082	1645.201769483462	1
0	5090	1648.620394210936	2
0	5091	1651.391516235886	1
0	5099	1653.979988096858	0
0	5105	1654.217945685749	1
0	5106	1654.322329398719	0
0	5117	1655.47306602117	1
0	5118	1656.717381269729	0
0	5125	1657.159682001199	1
0	5127	1657.398537676148	2
0	5129	1657.96885281033	1
0	5136	1662.023557358844	0
0	5142	1662.736631232074	1
0	5144	1663.456646103576	0
0	5164	1667.094007177007	1
0	5165	1667.128605642125	0
0	5185	1671.108524060852	1
0	5192	1673.447038363645	2
0	5193	1673.73428929001	1
0	5201	1676.28364265018	2
0	5202	1676.81713841443	1
0	5208	1677.619726533826	2
0	5211	1678.484341275322	3
0	5214	1679.10235429509	4
0	5216	1679.725791941174	5
0	5217	1680.343818421265	4
0	5222	1680.403385462359	3
0	5227	1680.44594955228	2
0	5233	1683.221092420569	1
0	5238	1683.327239130999	0
0	5253	1690.923080070473	1
0	5255	1693.75821481578	0
0	5261	1694.208134694961	1
0	5265	1694.949166797314	0
0	5272	1698.041790404105	1
0	5273	1698.153806364107	0
0	5280	1698.304395245617	1
0	5283	1698.539590498784	2
0	5286	1700.089886398181	1
0	5291	1701.593321172749	0
0	5299	1703.116236050475	1
0	5300	1703.261749511228	0
0	5307	1703.521821571505	1
0	5311	1705.104156112946	2
0	5312	1706.158450689694	1
0	5318	1706.690018431351	2
0	5321	1708.505752986536	1
0	5327	1711.688065341092	0
0	5346	1717.366307998501	1
0	5349	1725.044562043316	0
0	5362	1727.759799986608	1
0	5367	1731.026562921314	0
0	5405	1734.945412971351	1
0	5406	1738.574149682654	0
0	5422	1742.195226045488	1
0	5424	1743.152716896611	0
0	5430	1743.97844492196	1
0	5431	1744.160161365652	0
0	5437	1744.291312016927	1
0	5442	1746.561642238201	0
0	5454	1748.371316619749	1
0	5457	1751.98893742435	0
0	5470	1755.373785332996	1
0	5474	1757.954182100601	2
0	5476	1758.526363974318	3
0	5477	1758.694614227894	2
0	5482	1760.155528061307	1
0	5489	1761.161803777225	0
0	5502	1764.10385347672	1
0	5504	1765.217820927158	2
0	5506	1765.660115120839	3
0	5507	1767.173574313689	2
0	5512	1768.178103060922	1
0	5518	1771.709880141846	0
0	5526	1773.833820267388	1
0	5527	1775.607439973223	0
0	5544	1781.31216692865	1
0	5552	1787.200305189944	2
0	5554	1788.044540894606	3
0	5555	1790.208158720319	2
0	5562	1792.108840571974	3
0	5563	1792.948554972603	2
0	5569	1794.078474837355	3
0	5573	1796.089169911052	2
0	5580	1797.759933756614	3
0	5582	1798.383472663386	4
0	5585	1798.626481640929	3
0	5590	1799.809293540243	2
0	5599	1802.883768567683	1
0	5606	1803.33167216325	0
0	5638	1806.607079826498	1
0	5642	1807.486109434445	2
0	5645	1809.888268555652	1
0	5650	1810.031240440296	0
0	5660	1812.063640263517	1
0	5664	1815.519803548537	2
0	5670	1815.864798880513	3
0	5671	1816.136295688766	2
0	5676	1817.328256380901	1
0	5682	1819.523629780984	0
0	5700	1821.295331558494	1
0	5703	1821.705875264571	2
0	5707	1824.621078268419	1
0	5712	1824.742004323519	0
0	5723	1825.389854869629	1
0	5724	1825.581019365603	0
0	5745	1833.44636340232	1
0	5750	1839.195208228421	0
0	5756	1839.267640473078	1
0	5761	1839.702660948524	2
0	5767	1842.470918051496	3
0	5772	1843.506425732638	2
0	5780	1843.904477978914	3
0	5782	1843.970365875162	4
0	5786	1847.779231169749	5
0	5787	1848.653642083628	4
0	5796	1850.203482744634	5
0	5797	1851.488591595718	4
0	5802	1851.654625422218	3
0	5811	1854.451431037862	4
0	5812	1854.510388809742	3
0	5817	1854.680909802681	2
0	5822	1854.738033905144	1
0	5831	1857.255878267314	0
0	5851	1861.403298875382	1
0	5854	1864.083437763336	2
0	5855	1864.280368763133	1
0	5861	1864.497352413903	0
0	5878	1869.108206099912	1
0	5879	1870.458096336256	0
0	5891	1874.177929384183	1
0	5893	1875.099756189228	2
0	5895	1875.318559704315	3
0	5897	1875.62613331256	4
0	5900	1876.643820704408	3
0	5905	1876.982128103991	2
0	5910	1877.252773172885	1
0	5920	1878.864457122769	0
0	5944	1884.002100674247	1
0	5947	1884.588339868028	2
0	5949	1884.891398194669	1
0	5956	1886.29054112652	2
0	5958	1886.638893385966	3
0	5960	1886.944646995165	4
0	5964	1889.680918542463	3
0	5972	1895.02694069803	4
0	5976	1899.368444215669	5
0	5977	1899.796481589844	4
0	5982	1899.951388048028	3
0	5987	1900.915646639151	2
0	5996	1902.227248424916	1
0	6007	1908.976539932705	0
0	6021	1910.032876746336	1
0	6026	1917.463373469255	0
0	6058	1926.079221570306	1
0	6063	1929.032246712373	0
0	6082	1941.012266216639	1
0	6083	1942.865536381471	0
0	6092	1943.720554057767	1
0	6095	1944.498691532979	0
0	6104	1946.305219326201	1
0	6106	1946.599070653631	2
0	6115	1953.478514316865	1
0	6120	1953.636379541387	0
0	6148	1960.135113718567	1
0	6150	1960.28257689115	2
0	6151	1960.659184964272	1
0	6159	1962.716446370406	0
0	6181	1973.436592916685	1
0	6183	1973.506915656219	2
0	6185	1975.249571226519	3
0	6190	1980.103588865736	2
0	6196	1980.448904386678	3
0	6199	1981.705982700151	4
0	6201	1981.882584490619	5
0	6203	1982.484929527993	6
0	6205	1982.940744647319	7
0	6206	1983.433733525089	6
0	6212	1988.536553990609	5
0	6219	1988.877812911839	4
0	6224	1988.92632382086	3
0	6229	1989.244806448765	2
0	6240	1992.591558018591	1
0	6247	1995.444948231437	2
0	6248	1995.550293655217	1
0	6253	1995.815933551216	0
0	6270	1999.048663404809	1
0	6275	1999.964765496102	0
0	6290	2004.741643603766	1
0	6292	2006.054817244282	2
0	6294	2007.543526411666	3
0	6304	2010.462195738345	4
0	6307	2013.376494277161	5
0	6309	2014.715972558064	6
0	6310	2014.906784221596	5
0	6315	2015.52773351468	4
0	6320	2016.084970478526	3
0	6325	2018.218788223529	2
0	6333	2020.319421344678	1
0	6342	2021.597106214196	2
0	6344	2022.885058477896	1
0	6352	2024.549130883092	2
0	6354	2024.87836718224	3
0	6355	2025.628520998499	2
0	6363	2026.939264391515	1
0	6368	2027.238490701109	0
0	6391	2032.818548770652	1
0	6398	2036.366476793551	2
0	6401	2037.65382359956	3
0	6403	2041.972926782493	2
0	6409	2042.269192823019	3
0	6410	2042.557136787675	2
0	6416	2043.059026281811	1
0	6423	2044.216927523214	2
0	6425	2044.291733572451	3
0	6426	2044.959347323987	2
0	6431	2046.192585809348	1
0	6436	2046.403255972651	0
0	6457	2053.54726268658	1
0	6463	2055.524008579511	0
0	6473	2058.979191011897	1
0	6475	2058.982912887646	2
0	6476	2060.362997976962	1
0	6482	2061.141898527261	2
0	6483	2061.232998014072	1
0	6489	2063.900937527084	0
0	6495	2064.209241933971	1
0	6496	2064.23056037567	0
0	6510	2066.931193056646	1
0	6511	2067.164116923056	0
0	6526	2071.843606677012	1
0	6528	2072.001142144272	2
0	6531	2072.704262636315	1
0	6536	2072.948873951762	0
0	6542	2073.305986741466	1
0	6546	2074.454106573156	2
0	6548	2074.751929080387	3
0	6551	2077.002647548847	2
0	6560	2082.896894147285	3
0	6561	2085.304065695003	2
0	6571	2087.709625511089	3
0	6575	2088.954085441233	4
0	6577	2090.091327755948	5
0	6578	2091.409258302665	4
0	6583	2094.689500901553	3
0	6592	2100.454662268072	2
0	6599	2100.95129748329	3
0	6602	2102.220711565085	4
0	6604	2103.200538939206	5
0	6606	2106.858513245859	4
0	6612	2106.975778933712	5
0	6614	2108.619199503278	4
0	6623	2113.042744687442	5
0	6624	2114.627132489412	4
0	6630	2114.708268404819	5
0	6633	2115.017704185302	6
0	6636	2116.483682593118	5
0	6641	2117.289900595352	4
0	6646	2119.795477938913	3
0	6652	2120.042924124127	4
0	6654	2120.780785132461	5
0	6657	2121.625646123899	6
0	6659	2122.410881349887	7
0	6663	2123.703661386169	8
0	6664	2124.331796168696	7
0	6670	2125.204950457493	8
0	6672	2126.736580583209	7
0	6677	2127.506064378268	6
0	6683	2129.808669137596	7
0	6686	2130.135644487972	8
0	6689	2130.634746964079	9
0	6690	2132.114655197644	8
0	6696	2132.135420613848	9
0	6698	2132.331417514195	10
0	6702	2135.328169047587	9
0	6708	2136.048401278866	10
0	6709	2136.145939547567	9
0	6715	2137.614107333632	8
0	6721	2139.44009849027	9
0	6724	2141.916454626835	10
0	6728	2148.983281899558	11
0	6730	2152.2326109493	12
0	6733	2153.946744949145	11
0	6739	2155.257645865247	10
0	6746	2161.407946679925	9
0	6751	2162.501288510983	8
0	6756	2162.798045322594	7
0	6763	2163.571825015032	8
0	6764	2164.004859118434	7
0	6770	2164.267403641159	8
0	6774	2168.303939917522	7
0	6780	2168.69521557928	8
0	6782	2168.954006216585	9
0	6784	2170.17849182624	8
0	6790	2170.344033994577	7
0	6795	2170.501327504767	6
0	6803	2171.389627486612	7
0	6805	2172.955245928209	8
0	6806	2175.609625343187	7
0	6814	2178.291272650667	8
0	6816	2178.873965403995	9
0	6817	2181.055191829652	8
0	6822	2181.269862967916	7
0	6830	2181.904736948274	8
0	6832	2185.544567375774	7
0	6837	2185.881538791991	6
0	6843	2186.278260864165	7
0	6845	2186.437342185328	8
0	6850	2187.83373466743	7
0	6856	2189.262043253651	6
0	6866	2192.37455134991	5
0	6872	2193.819437816233	6
0	6874	2195.973437375691	7
0	6875	2197.675496565768	6
0	6881	2199.908664753772	7
0	6882	2199.942067261278	6
0	6887	2200.568776406061	5
0	6892	2201.019704719725	4
0	6897	2201.571881641191	3
0	6904	2206.930523602666	2
0	6910	2207.857480720881	1
0	6916	2208.421374401621	2
0	6917	2209.121818344262	1
0	6925	2211.519731495892	2
0	6926	2211.683884123711	1
0	6933	2213.155265324148	0
0	6967	2230.610918149872	1
0	6968	2234.16715032696	0
0	6987	2237.245631838308	1
0	6988	2237.846583519252	0
0	7001	2243.992894290623	1
0	7003	2246.460693004682	2
0	7004	2246.950655038024	1
0	7010	2247.246108861307	2
0	7014	2247.342900605925	3
0	7018	2248.76180091992	4
0	7020	2248.977798229071	5
0	7021	2250.090405918556	4
0	7032	2252.396467403207	3
0	7042	2254.530609070303	2
0	7047	2254.669129659134	1
0	7053	2255.453093567916	2
0	7059	2266.131275491104	3
0	7061	2272.909819651686	4
0	7063	2273.701434007337	5
0	7064	2274.134185759797	4
0	7070	2275.959033761836	3
0	7076	2276.655464789166	2
0	7083	2277.576122465292	3
0	7086	2277.869964747833	4
0	7092	2286.414470091861	3
0	7099	2288.574136658803	2
0	7105	2289.998005001581	1
0	7111	2291.286571034956	0
0	7118	2292.614147880477	1
0	7119	2292.630708400437	0
0	7131	2294.370402161316	1
0	7138	2301.51888059383	0
0	7157	2304.80681258991	1
0	7158	2305.448032274604	0
0	7167	2305.854444735122	1
0	7169	2306.207839334329	2
0	7171	2310.606048956652	3
0	7177	2311.579451016438	4
0	7181	2313.582139514117	3
0	7189	2315.173106774843	2
0	7194	2316.436130812222	1
0	7199	2316.553664286649	0
0	7210	2318.66674715645	1
0	7212	2319.575935933857	2
0	7215	2321.087772470212	1
0	7223	2322.803480620347	2
0	7224	2322.9902314663	1
0	7232	2324.771949758961	2
0	7234	2324.773028524036	3
0	7237	2325.540228785523	2
0	7242	2325.762298638262	1
0	7247	2327.990712084701	0
0	7258	2329.025937922232	1
0	7259	2329.53481980612	0
0	7282	2332.80431031482	1
0	7283	2333.130222414304	0
0	7290	2334.721980440855	1
0	7294	2336.3120279923	2
0	7297	2337.73181889173	3
0	7298	2338.606031800419	2
0	7304	2339.311527277284	3
0	7310	2341.175624262499	4
0	7314	2343.142961210348	5
0	7320	2347.489163224706	4
0	7329	2347.982083031908	5
0	7332	2348.397220884916	4
0	7339	2349.674236005786	5
0	7340	2349.944764753746	4
0	7346	2351.41401071553	5
0	7349	2354.302871575428	4
0	7354	2354.956886441393	3
0	7360	2355.398187177121	4
0	7361	2356.183083530516	3
0	7369	2359.185947777834	2
0	7374	2365.246748112576	1
0	7382	2365.808905165827	2
0	7388	2372.207636742016	1
0	7395	2373.431165745222	2
0	7396	2374.811111090574	1
0	7402	2376.490041373235	2
0	7405	2377.783123865815	3
0	7406	2380.051209407964	2
0	7413	2381.235980856147	3
0	7415	2382.326449815816	4
0	7416	2382.434984157281	3
0	7422	2382.599230830513	4
0	7423	2382.674540186959	3
0	7430	2386.054439925512	2
0	7435	2387.339039191162	1
0	7440	2388.649916480717	0
0	7448	2389.182176960776	1
0	7451	2391.736232670807	0
0	7457	2392.119639418344	1
0	7460	2393.061814129745	2
0	7463	2396.49551200459	3
0	7467	2401.186568630107	4
0	7468	2402.802617908539	3
0	7473	2403.414479660406	2
0	7479	2403.743802308694	3
0	7481	2406.498646678545	2
0	7486	2407.192286412163	1
0	7492	2409.032728057201	0
0	7505	2411.891673934249	1
0	7506	2412.647709971737	0
0	7512	2412.864882679551	1
0	7517	2415.085605808632	2
0	7519	2415.325011871703	3
0	7520	2416.192535510727	2
0	7526	2416.426404674226	3
0	7528	2417.093614855846	2
0	7541	2423.529779434416	3
0	7542	2424.132255185614	2
0	7548	2424.212034839138	3
0	7550	2426.106509370606	2
0	7556	2426.666963699177	1
0	7561	2427.496991822478	0
0	7575	2430.131935447335	1
0	7577	2432.256380271546	0
0	7598	2439.669566985193	1
0	7599	2441.268115120095	0
0	7630	2451.711494181162	1
0	7634	2454.588669966562	2
0	7637	2457.164609249041	1
0	7644	2458.141012287818	0
0	7658	2462.203677398079	1
0	7660	2462.639213946991	0
0	7669	2464.322579061177	1
0	7673	2469.816576968799	2
0	7675	2470.080589559722	3
0	7676	2470.814388517896	2
0	7681	2471.041426734894	1
0	7686	2471.300837722008	0
0	7698	2475.564437670549	1
0	7706	2478.447451494615	2
0	7708	2479.66617628151	1
0	7713	2479.906919302627	0
0	7724	2480.824116472817	1
0	7726	2481.197364895194	2
0	7728	2483.877778260095	3
0	7729	2484.321564263951	2
0	7734	2485.158700326204	1
0	7740	2486.072209955155	2
0	7744	2486.740994676245	3
0	7746	2487.74889286103	4
0	7750	2489.023956229745	5
0	7751	2490.115849453425	4
0	7757	2491.673639417937	3
0	7763	2491.898236089735	4
0	7765	2493.442721566796	3
0	7771	2493.752258500097	4
0	7772	2493.879538357266	3
0	7777	2494.29116468314	2
0	7782	2495.195162168351	1
0	7790	2496.402957749449	0
0	7796	2496.731470670449	1
0	7797	2497.296665547758	0
0	7803	2502.970876412593	1
0	7805	2503.296014581657	2
0	7809	2504.25287706292	1
0	7819	2507.944716701431	2
0	7823	2513.336363491073	1
0	7828	2514.413708618935	0
0	7837	2516.564955512575	1
0	7841	2517.696657708176	2
0	7842	2518.437524199055	1
0	7848	2519.050680126175	2
0	7849	2519.210831286981	1
0	7854	2519.297087785097	0
0	7861	2523.113601198448	1
0	7862	2524.649838169916	0
0	7882	2531.334939298373	1
0	7887	2537.86533802538	0
0	7900	2543.126783577072	1
0	7902	2544.308286445245	0
0	7915	2547.347828010303	1
0	7916	2548.018635440938	0
0	7923	2548.606962750596	1
0	7927	2549.856130593682	2
0	7928	2549.868750723983	1
0	7934	2552.487092539914	2
0	7937	2552.933071440162	3
0	7939	2553.317009912074	4
0	7940	2553.763813002068	3
0	7945	2554.125902125887	2
0	7952	2555.917063286042	1
0	7962	2562.887232442912	0
0	7981	2566.419793099924	1
0	7982	2566.585451941535	0
0	7988	2566.752570107163	1
0	7989	2568.462501628905	0
0	8004	2570.137949457979	1
0	8007	2572.161632007569	0
0	8025	2577.279081702037	1
0	8026	2578.205661919393	0
0	8039	2585.191594852586	1
0	8040	2586.592972679287	0
0	8046	2586.850697937967	1
0	8051	2587.724835439066	2
0	8055	2591.020403635385	3
0	8057	2591.148452168931	4
0	8058	2591.527434910401	3
0	8066	2593.005136999556	2
0	8071	2593.749121287778	1
0	8076	2595.519609973164	0
0	8117	2606.041315342425	1
0	8119	2607.721644824508	0
0	8130	2609.509833214883	1
0	8132	2612.603843021135	2
0	8137	2616.158915981082	3
0	8138	2621.327797762466	2
0	8144	2621.548547437504	3
0	8147	2621.933468472651	2
0	8154	2623.752967437136	3
0	8155	2624.455159656301	2
0	8160	2624.869682563488	1
0	8168	2626.553430551811	0
0	8174	2626.798024738712	1
0	8177	2629.10764168109	2
0	8179	2629.870615008805	3
0	8181	2630.357968648244	4
0	8183	2630.762585225487	5
0	8185	2630.83054376922	6
0	8189	2632.362228204851	5
0	8194	2632.880155031197	4
0	8202	2634.475613342919	3
0	8208	2636.118093495587	2
0	8216	2637.38317268423	1
0	8227	2640.939963422696	0
0	8249	2648.631265075951	1
0	8250	2648.989449789668	0
0	8259	2651.292770354114	1
0	8260	2651.847295623968	0
0	8267	2654.763337370734	1
0	8269	2655.426938908577	2
0	8270	2655.763007664633	1
0	8278	2658.280647456418	2
0	8279	2660.756970815821	1
0	8284	2662.731665733998	0
0	8297	2666.481734371656	1
0	8298	2666.935904079843	0
0	8309	2668.291110579457	1
0	8310	2669.027691081516	0
0	8329	2680.04064613346	1
0	8331	2682.043746122494	2
0	8332	2682.866514861606	1
0	8340	2683.718997068434	2
0	8342	2684.138015899951	3
0	8344	2684.92907953376	4
0	8345	2685.400783398676	3
0	8350	2685.494820050168	2
0	8356	2685.748514805355	1
0	8362	2685.91517632734	2
0	8363	2686.221852013478	1
0	8371	2688.623727121819	2
0	8375	2692.97397621926	1
0	8382	2693.830709476552	0
0	8388	2693.929631201257	1
0	8391	2694.321480244281	2
0	8399	2698.788711906502	1
0	8408	2700.512119913847	2
0	8409	2700.729101722697	1
0	8416	2702.197168765566	2
0	8417	2702.554104224444	1
0	8422	2703.217399658029	0
0	8432	2707.857383133577	1
0	8434	2707.988531788683	2
0	8435	2709.116644868418	1
0	8442	2714.4854397916	2
0	8444	2715.037896152092	3
0	8445	2716.930935349607	2
0	8451	2717.166914927223	3
0	8453	2718.339443025519	4
0	8461	2721.11960138026	3
0	8468	2722.533619490567	4
0	8469	2725.366042725283	3
0	8474	2725.630740979864	2
0	8482	2729.933785031548	1
0	8488	2730.782809931212	2
0	8490	2732.264871938746	1
0	8495	2732.566010133738	0
0	8502	2734.558828541632	1
0	8504	2734.566294057691	2
0	8505	2735.227254149858	1
0	8513	2735.950386468856	2
0	8517	2738.746764110262	1
0	8523	2738.988680863686	0
0	8529	2739.161137340966	1
0	8532	2741.934764868624	2
0	8534	2744.067072638678	3
0	8536	2744.175892201006	4
0	8538	2745.38509186637	5
0	8541	2748.999451460152	4
0	8546	2749.401047091566	3
0	8552	2749.786840698756	2
0	8559	2752.612373529585	1
0	8568	2754.029140936534	2
0	8569	2754.263924487736	1
0	8574	2754.806869822467	0
0	8602	2759.764100801298	1
0	8603	2760.060430787666	0
0	8642	2763.949169537681	1
0	8645	2766.775265836323	0
0	8665	2773.11349776271	1
0	8669	2775.276407579287	2
0	8672	2776.65987504078	1
0	8678	2777.063753410699	2
0	8680	2779.293113371642	3
0	8681	2779.817730307917	2
0	8688	2783.191139041422	1
0	8695	2785.83961054651	2
0	8696	2786.664383593233	1
0	8701	2787.481302097889	0
0	8720	2797.476983793414	1
0	8722	2797.780206879846	2
0	8724	2800.013261124029	3
0	8727	2803.646068670557	4
0	8730	2808.775621373726	3
0	8736	2810.701594238369	2
0	8742	2814.147846434662	1
0	8749	2815.230360289631	2
0	8751	2816.119543267937	1
0	8756	2816.401737574757	0
0	8762	2818.415703880843	1
0	8764	2820.009961970925	0
0	8785	2824.216586877429	1
0	8789	2825.252248323256	0
0	8795	2825.842743414569	1
0	8804	2832.469956329389	2
0	8805	2836.752467689949	1
0	8811	2837.334957106303	2
0	8815	2838.987568681207	1
0	8821	2840.627158258323	2
0	8823	2842.123224206174	1
0	8833	2842.995326509347	2
0	8836	2847.537333749381	1
0	8843	2850.684326440179	2
0	8845	2851.170172692132	3
0	8848	2857.460632915862	2
0	8856	2861.001680176513	1
0	8861	2861.367535130989	0
0	8874	2863.994161314724	1
0	8876	2864.649002491336	2
0	8877	2864.830352769301	1
0	8884	2865.519802935959	2
0	8887	2867.101189547387	1
0	8893	2867.198884759006	2
0	8894	2867.518837877229	1
0	8904	2872.31988010423	0
0	8939	2882.590908892536	1
0	8942	2884.861289395661	0
0	8953	2885.483482163043	1
0	8957	2890.019834891245	0
0	8986	2900.243354023862	1
0	8987	2900.945696079681	0
0	9004	2906.19125384646	1
0	9005	2907.676958329273	0
0	9025	2913.116986304561	1
0	9027	2914.454092583843	2
0	9028	2915.190857548215	1
0	9035	2915.581407424617	2
0	9041	2920.786817679091	1
0	9050	2921.709637147514	2
0	9052	2922.544085932282	3
0	9054	2923.468107022216	2
0	9059	2923.717217821762	1
0	9064	2924.082367732859	0
0	9070	2925.190054666019	1
0	9073	2925.71684858679	0
0	9086	2927.87954488496	1
0	9087	2928.703053141862	0
0	9093	2930.140205998321	1
0	9096	2931.503127345925	0
0	9109	2934.773259965147	1
0	9111	2935.314445541603	0
0	9143	2938.381109915675	1
0	9147	2939.976757527222	2
0	9150	2941.637500054576	1
0	9155	2942.002919601968	0
0	9177	2951.235883256948	1
0	9180	2954.233686613155	0
0	9192	2961.28773505903	1
0	9197	2964.559848122679	0
0	9205	2966.213910950499	1
0	9206	2967.465659089961	0
0	9225	2976.264827249922	1
0	9226	2977.316866460751	0
0	9233	2977.577004375671	1
0	9234	2981.425570252077	0
0	9252	2989.61028027305	1
0	9254	2990.489636268245	2
0	9256	2991.476352488419	3
0	9258	2992.39889485338	4
0	9261	2992.58643168762	3
0	9266	2993.10777446501	2
0	9271	2994.579956263699	1
0	9276	2995.057368954775	0
0	9287	2995.877208319002	1
0	9290	3001.0233551957	0
0	9324	3011.925661444357	1
0	9325	3013.313330533864	0
0	9334	3016.289438357637	1
0	9339	3017.28483993021	2
0	9342	3018.193477039555	1
0	9350	3018.869276385463	0
0	9359	3019.635987207099	1
0	9362	3024.781712504648	0
0	9392	3035.967601667731	1
0	9397	3038.031521068621	0
0	9403	3038.412802006782	1
0	9407	3041.038059172002	0
0	9419	3043.897512641768	1
0	9421	3044.243521401242	2
0	9422	3044.572949811514	1
0	9428	3047.72688099649	0
0	9435	3054.867641414092	1
0	9436	3056.937730086946	0
0	9442	3057.01508862835	1
0	9446	3059.763487976578	0
0	9455	3060.752366333079	1
0	9460	3065.491749779101	0
0	9473	3067.7202586417	1
0	9475	3069.518416257952	0
0	9487	3071.69572854376	1
0	9489	3072.704371182944	2
0	9490	3074.265592455926	1
0	9496	3075.623903727682	2
0	9497	3075.727353625901	1
0	9509	3078.400581909559	2
0	9510	3079.778611234111	1
0	9515	3080.380847504226	0
0	9521	3081.609109645513	1
0	9524	3083.13796615257	0
0	9533	3084.679798129664	1
0	9539	3088.41010632634	0
0	9553	3090.330525151143	1
0	9554	3090.357284877769	0
0	9570	3092.116560639176	1
0	9573	3095.724930149764	2
0	9586	3099.494622408316	1
0	9596	3105.017040880469	2
0	9597	3105.577217039863	1
0	9607	3108.187690077651	2
0	9609	3108.883223223145	3
0	9611	3108.978625666229	4
0	9615	3111.450452031072	3
0	9620	3113.231665501989	2
0	9625	3113.371733249839	1
0	9634	3113.930176127288	2
0	9635	3114.577600170266	1
0	9648	3120.428774998392	2
0	9651	3123.841856929438	1
0	9656	3123.920975921547	0
0	9692	3134.152826526919	1
0	9693	3134.55338923691	0
0	9700	3135.849279591629	1
0	9704	3141.981817815314	2
0	9705	3142.943160248516	1
0	9713	3144.298694958454	0
0	9730	3146.914994874398	1
0	9731	3147.954517123316	0
0	9740	3151.743592519508	1
0	9744	3157.455142212304	2
0	9745	3157.656242646415	1
0	9751	3160.918238142054	0
0	9764	3164.040148473497	1
0	9766	3168.174240767997	2
0	9767	3168.62729754946	1
0	9772	3169.308881484437	0
0	9791	3176.557354943169	1
0	9793	3177.095679947598	2
0	9794	3177.73267200979	1
0	9799	3178.223649920973	0
0	9805	3178.59168132799	1
0	9815	3184.672540503915	0
0	9858	3204.170931923683	1
0	9860	3205.63219831374	2
0	9862	3205.823232999452	3
0	9864	3206.08812325865	4
0	9871	3209.771588307912	5
0	9872	3212.150972220816	4
0	9881	3216.417053193691	5
0	9883	3218.31136184086	6
0	9886	3218.967483704809	5
0	9893	3222.139197350147	4
0	9899	3222.939338134144	5
0	9902	3223.9985377582	6
0	9903	3224.682219488288	5
0	9911	3228.935134411924	4
0	9917	3228.943818276439	5
0	9918	3229.135554627907	4
0	9924	3229.47183717201	5
0	9926	3231.006084512642	4
0	9932	3232.668093288356	3
0	9937	3232.754534435397	2
0	9943	3233.023529844205	3
0	9947	3233.723419759421	4
0	9949	3234.05151283729	5
0	9954	3235.650575680257	6
0	9955	3236.814915995165	5
0	9960	3238.567603189396	4
0	9965	3240.182661394564	3
0	9970	3240.240623416944	2
0	9975	3240.327119680089	1
0	9979	3240.53050156676	2
0	9986	3243.356600046607	1
0	9992	3245.85081005012	2
0	9996	3246.878448023019	3
0	10007	3253.943646875379	4
0	10009	3256.103376696662	5
0	10010	3256.314070058073	4
0	10016	3257.104174170543	3
0	10022	3257.416824609864	4
0	10026	3258.163660497289	5
0	10027	3258.925945412377	4
0	10033	3259.327005655275	5
0	10035	3260.759172747481	4
0	10045	3263.620821181188	3
0	10053	3263.908190381977	4
0	10056	3267.789229320774	3
0	10061	3270.2317809161	2
0	10067	3270.387833022249	3
0	10068	3271.25129812504	2
0	10073	3274.023255728471	1
0	10082	3277.202520944656	2
0	10083	3278.451005796085	1
0	10089	3279.643210086152	0
0	10101	3280.976116239621	1
0	10102	3281.228951523927	0
0	10112	3282.171150228984	1
0	10113	3282.394939331363	0
0	10147	3286.268369667057	1
0	10150	3288.543600978097	2
0	10151	3289.926472489534	1
0	10157	3291.774441867638	2
0	10160	3296.486480025502	1
0	10170	3298.641857512249	0
0	10184	3301.972570371485	1
0	10185	3302.803109011038	0
0	10199	3306.460836496734	1
0	10203	3308.282393432829	2
0	10204	3309.305233893422	1
0	10212	3310.126947094484	2
0	10214	3311.658608401522	3
0	10216	3313.031494030162	2
0	10222	3313.071206595156	3
0	10223	3313.956185986674	2
0	10228	3314.183733246639	1
0	10233	3314.32990370933	0
0	10250	3318.741769381401	1
0	10251	3319.014198931787	0
0	10265	3324.15074878077	1
0	10266	3324.933508142718	0
0	10277	3325.159753171155	1
0	10278	3325.523201094094	0
0	10286	3328.294411862756	1
0	10287	3328.362431245825	0
0	10298	3331.7775829848	1
0	10307	3333.411494401075	2
0	10309	3334.382685352618	1
0	10317	3338.501970941493	0
0	10324	3339.348012377674	1
0	10329	3340.419907470507	0
0	10350	3344.926490120606	1
0	10351	3346.873381739901	0
0	10358	3350.767737033188	1
0	10361	3352.916727387377	0
0	10373	3355.676593344301	1
0	10375	3358.543196209151	2
0	10377	3359.254083960461	3
0	10382	3362.351549458953	2
0	10387	3362.901224278315	1
0	10399	3366.745589901629	0
0	10406	3369.194557560505	1
0	10407	3369.498000842748	0
0	10430	3379.552408843407	1
0	10433	3381.133117316035	0
0	10442	3382.641184916716	1
0	10447	3383.957878465689	0
0	10478	3395.126929067388	1
0	10479	3396.881810726787	0
0	10487	3397.248535751308	1
0	10489	3400.008494967363	0
0	10501	3401.778052248937	1
0	10504	3404.518070509722	0
0	10520	3408.315201656316	1
0	10522	3409.479652204781	2
0	10525	3413.385596315295	1
0	10530	3414.201564083898	0
0	10594	3437.747194663223	1
0	10596	3438.657843197224	2
0	10598	3439.139316980327	3
0	10599	3440.926741787269	2
0	10604	3441.077251113464	1
0	10610	3441.873284933525	0
0	10623	3444.38485282684	1
0	10624	3444.564618609277	0
0	10633	3445.724711252504	1
0	10636	3452.031564978288	0
0	10646	3453.612702944915	1
0	10650	3454.261705518526	2
0	10656	3457.362121470961	1
0	10661	3458.189543947515	0
0	10667	3458.562007662507	1
0	10671	3461.223373227014	0
0	10692	3470.293114961375	1
0	10694	3471.484793672954	2
0	10696	3473.757119260735	3
0	10700	3474.45823845794	4
0	10701	3478.158963269591	3
0	10708	3480.601319623076	2
0	10714	3481.124360078016	1
0	10721	3484.336438764271	0
0	10727	3484.895131390185	1
0	10729	3485.311107496852	2
0	10731	3485.847036799726	3
0	10736	3488.281743170399	4
0	10740	3494.515120619646	3
0	10745	3494.86811242167	2
0	10752	3501.841758735627	1
0	10758	3504.282772460977	0
0	10764	3505.046489774476	1
0	10769	3508.148452326337	0
0	10776	3510.56740953514	1
0	10777	3513.335551257916	0
0	10799	3516.175618906601	1
0	10800	3516.959832803893	0
0	10819	3520.598622709326	1
0	10824	3523.137527491852	0
0	10831	3525.252924752533	1
0	10832	3527.122179760732	0
0	10841	3527.478524444413	1
0	10849	3529.970344267641	2
0	10852	3531.073149273807	3
0	10853	3531.277681192223	2
0	10859	3532.279401953439	1
0	10864	3533.608811861044	0
0	10885	3543.009324532905	1
0	10888	3543.542015457329	0
0	10912	3552.198694632827	1
0	10914	3553.849035393864	2
0	10917	3555.179404452819	1
0	10923	3557.086739146017	0
0	10942	3563.279218250067	1
0	10943	3563.668407730182	0
0	10951	3565.812889174347	1
0	10953	3566.839319438356	2
0	10954	3567.204040880044	1
0	10961	3573.389693016103	0
0	10973	3574.673271619005	1
0	10974	3575.051239912906	0
0	10981	3578.130659026686	1
0	10982	3580.116001977113	0
0	10990	3580.351878714241	1
0	10993	3580.880098728264	0
0	10999	3581.228737393081	1
0	11004	3582.809724163707	0
0	11014	3584.87192412368	1
0	11016	3588.065987377071	2
0	11018	3589.4125443984	3
0	11023	3590.571867843368	2
0	11030	3591.168304990409	3
0	11031	3592.066364916753	2
0	11037	3595.542246786125	1
0	11043	3596.902232401251	2
0	11048	3598.834107660344	1
0	11054	3598.877509806467	2
0	11056	3599.556558339198	1
0	11061	3600.775867027359	0
0	11094	3611.973074587075	1
0	11096	3612.78582620171	2
0	11097	3615.43102113444	1
0	11105	3619.576113844414	0
0	11111	3620.80533782481	1
0	11116	3622.673086923194	0
0	11123	3623.003333246115	1
0	11126	3624.650276386502	0
0	11155	3630.982759009701	1
0	11156	3631.063081641617	0
0	11170	3634.643200096509	1
0	11173	3638.419975508539	0
0	11181	3638.997623713957	1
0	11183	3641.72068640738	0
0	11199	3645.765076988539	1
0	11204	3649.733124391412	0
0	11211	3650.897755316658	1
0	11213	3651.856568293222	2
0	11216	3653.357853710823	1
0	11221	3653.549466220085	0
0	11239	3656.593300290079	1
0	11240	3656.994598164472	0
0	11250	3659.892229286789	1
0	11252	3660.431252692399	2
0	11257	3663.988275112466	1
0	11263	3665.419309093431	2
0	11264	3666.748714000288	1
0	11272	3668.307244964358	0
0	11296	3679.914063629627	1
0	11298	3679.937698364814	2
0	11300	3680.383570094698	3
0	11302	3681.633660982481	4
0	11305	3684.605139068836	3
0	11313	3685.374387813892	2
0	11319	3688.03891044545	1
0	11324	3688.164380614157	0
0	11333	3689.471217757987	1
0	11335	3690.26782817895	2
0	11337	3690.64540349758	3
0	11339	3692.349581290985	4
0	11343	3692.782709132866	5
0	11345	3693.250319512741	6
0	11346	3693.457766993471	5
0	11351	3693.483156216483	4
0	11358	3694.258051957995	5
0	11363	3696.785681571576	4
0	11368	3698.982880435575	3
0	11373	3699.067160651474	2
0	11383	3700.862077570633	1
0	11390	3702.50363416052	2
0	11394	3707.736871360762	1
0	11400	3709.087312880869	0
0	11428	3713.691409331237	1
0	11431	3715.968636309872	0
0	11437	3717.12486248033	1
0	11438	3718.29832835101	0
0	11446	3721.002506353896	1
0	11449	3721.299952270031	0
0	11462	3725.298848007107	1
0	11466	3728.536947627355	2
0	11467	3729.575335119411	1
0	11472	3729.765544007511	0
0	11493	3736.065638563962	1
0	11498	3737.615443563227	2
0	11500	3738.838080930719	3
0	11503	3740.72985294471	2
0	11509	3740.802473599232	3
0	11511	3741.334687343642	4
0	11513	3742.818297912183	3
0	11518	3743.040253230455	2
0	11529	3745.997812565576	3
0	11530	3748.904709270076	2
0	11538	3750.590024347137	3
0	11539	3751.703487348854	2
0	11545	3754.067703397344	1
0	11550	3758.276845548479	0
0	11614	3781.475127937518	1
0	11616	3782.344899221465	2
0	11620	3783.186089609786	3
0	11622	3783.436351462907	4
0	11625	3784.085172144624	3
0	11630	3784.539480257743	2
0	11636	3786.541174916491	1
0	11643	3788.397573116076	0
0	11659	3797.921719147655	1
0	11662	3799.492889870118	0
0	11683	3806.961092989732	1
0	11687	3808.810213351655	2
0	11688	3809.513529969425	1
0	11693	3809.927844118652	0
0	11699	3810.134234404023	1
0	11703	3810.922409544157	2
0	11707	3816.01739414731	3
0	11709	3817.654960661779	4
0	11710	3819.885310305719	3
0	11716	3821.82084024359	2
0	11722	3823.712928473397	1
0	11727	3825.331281728386	0
0	11737	3828.593351617874	1
0	11739	3829.143575145334	0
0	11759	3835.860286494607	1
0	11760	3836.194863232085	0
0	11783	3842.465241532358	1
0	11784	3842.843043978037	0
0	11812	3846.640981860662	1
0	11813	3847.493624125853	0
0	11829	3850.957842477488	1
0	11831	3851.723372845411	0
0	11851	3857.609439170769	1
0	11856	3861.300067006143	2
0	11858	3861.910179986972	3
0	11859	3866.844729682071	2
0	11865	3867.375415402252	1
0	11870	3868.527357040796	0
0	11878	3871.947684083589	1
0	11884	3876.746557157145	0
0	11891	3879.073858243289	1
0	11892	3879.347657075335	0
0	11917	3885.177090228395	1
0	11921	3888.140842783016	2
0	11922	3888.454778951171	1
0	11928	3889.333478314778	2
0	11931	3890.632768462742	3
0	11933	3893.251012129649	4
0	11935	3893.932057538192	5
0	11937	3895.821520895651	6
0	11938	3896.256975212565	5
0	11943	3896.340574265035	4
0	11949	3897.335018489346	3
0	11955	3897.995608153523	2
0	11962	3899.066328583686	1
0	11969	3901.455813992267	0
0	11990	3910.389376336997	1
0	11992	3911.429402995999	0
0	12000	3911.867127931153	1
0	12002	3912.88382765663	0
0	12033	3924.380306855661	1
0	12037	3927.08912861739	0
0	12057	3933.297802878127	1
0	12058	3934.784439253825	0
0	12065	3937.579342412955	1
0	12070	3938.328343178626	0
0	12092	3944.03505895693	1
0	12095	3947.125059174972	0
0	12109	3953.425051178066	1
0	12110	3953.61755222974	0
0	12119	3954.402402495532	1
0	12121	3954.480993405688	2
0	12122	3954.876343537644	1
0	12128	3956.588573115462	0
0	12137	3958.400695209812	1
0	12138	3960.786975954467	0
0	12199	3987.050103805925	1
0	12202	3988.324390815766	0
0	12225	3994.111624098245	1
0	12228	3997.983680540891	2
0	12230	3999.160267820872	3
0	12231	3999.906442272273	2
0	12237	3999.99490177734	1
0	12243	4000.415413930014	2
0	12245	4001.680388890711	3
0	12246	4002.499435408096	2
0	12254	4003.739376773387	1
0	12259	4004.12022428946	0
0	12265	4004.346096350436	1
0	12269	4007.125870876671	2
0	12270	4007.549927061312	1
0	12278	4012.062192076904	0
0	12307	4025.226308695322	1
0	12309	4025.328293830708	2
0	12310	4025.41591446692	1
0	12317	4025.924837388032	0
0	12324	4028.719229590375	1
0	12325	4028.820696428402	0
0	12342	4031.68027952438	1
0	12343	4031.937429308561	0
0	12356	4034.709906965894	1
0	12362	4037.332977672925	0
0	12368	4038.855894503661	1
0	12371	4041.36373006117	2
0	12372	4042.06519923689	1
0	12378	4042.569760495821	2
0	12380	4047.117522917506	1
0	12386	4048.845102943753	2
0	12390	4055.209074783535	1
0	12396	4055.632163590605	2
0	12397	4056.848664675139	1
0	12404	4057.038309415906	0
0	12421	4058.335411357988	1
0	12424	4063.057751772952	2
0	12425	4064.691039061292	1
0	12432	4066.30365563115	2
0	12434	4070.090981174763	3
0	12436	4070.599996529386	4
0	12437	4071.357610324599	3
0	12445	4072.800230238753	2
0	12452	4075.045571067117	3
0	12455	4079.036333141367	4
0	12456	4080.854012094182	3
0	12462	4080.946153457826	4
0	12464	4081.457058878508	5
0	12466	4084.15042638514	4
0	12473	4086.946068265061	3
0	12479	4087.164932000638	4
0	12480	4089.970538844518	3
0	12486	4090.98849061475	4
0	12488	4092.915590138302	3
0	12495	4093.341204752956	4
0	12496	4093.369251948201	3
0	12507	4097.607582219452	2
0	12512	4098.609495174284	1
0	12518	4098.936936307285	2
0	12520	4100.812227727578	1
0	12526	4101.348792190001	0
0	12537	4105.600313445092	1
0	12541	4109.359143699359	2
0	12542	4113.258397986589	1
0	12548	4121.042010259204	0
0	12554	4121.312232886633	1
0	12556	4122.532537172565	2
0	12558	4123.515920735242	3
0	12560	4123.769419588847	2
0	12565	4124.081025194168	1
0	12574	4126.028782230082	0
0	12582	4127.397256192303	1
0	12585	4135.707374555041	0
0	12599	4138.68120528297	1
0	12600	4139.56517335381	0
0	12609	4142.50820709162	1
0	12611	4143.13568846742	2
0	12613	4143.677625349185	3
0	12617	4145.614480386811	4
0	12620	4146.388579203652	3
0	12626	4146.437299665099	4
0	12627	4147.805374751715	3
0	12633	4148.653799284379	2
0	12638	4148.772588358263	1
0	12647	4153.943703075061	2
0	12648	4153.989844300825	1
0	12654	4154.553837190219	0
0	12661	4156.452495538324	1
0	12662	4157.02280901243	0
0	12697	4169.166850240102	1
0	12700	4170.939504871649	0
0	12728	4185.572280228063	1
0	12729	4185.640120203175	0
0	12746	4187.370418534044	1
0	12749	4187.686202600794	0
0	12766	4191.936143181351	1
0	12771	4197.313245702581	0
0	12803	4220.346427472334	1
0	12807	4221.775659429672	2
0	12811	4222.367713687265	3
0	12812	4223.244455753436	2
0	12818	4223.248150688679	3
0	12821	4223.744689622975	4
0	12823	4225.079290075289	5
0	12824	4226.143903056108	4
0	12831	4227.333449279244	5
0	12832	4228.368056127048	4
0	12837	4228.562885179782	3
0	12843	4228.833933937649	4
0	12846	4230.124236347658	5
0	12853	4233.091670485096	6
0	12854	4238.875118802413	5
0	12861	4242.573639984215	6
0	12864	4243.368129872312	7
0	12865	4243.37426036578	6
0	12872	4247.172072116101	7
0	12873	4248.059907209083	6
0	12880	4249.932648526556	7
0	12881	4253.555380530314	6
0	12887	4253.662288150739	7
0	12888	4254.01641416718	6
0	12895	4255.198182587655	5
0	12900	4255.695545141647	4
0	12905	4256.383348131782	3
0	12910	4257.644173057107	2
0	12916	4258.156148673371	1
0	12923	4258.454534417565	0
0	12947	4260.268949818675	1
0	12948	4260.413246599303	0
0	12963	4261.093773985318	1
0	12971	4264.605674383561	2
0	12972	4264.703905672077	1
0	12977	4265.173865892792	0
0	12985	4265.805042887161	1
0	12987	4266.292331343386	2
0	12989	4266.789796573741	3
0	12991	4268.486310445681	4
0	12993	4269.507145751032	3
0	13000	4272.085737687737	4
0	13003	4274.256586720471	5
0	13005	4276.927794520888	4
0	13012	4279.387140198062	5
0	13015	4286.851846650922	4
0	13021	4287.633896146129	3
0	13026	4287.793250572336	2
0	13032	4287.986451369827	3
0	13034	4288.297588076614	4
0	13036	4289.950145607929	3
0	13044	4294.95515652487	4
0	13047	4298.900280745565	5
0	13048	4301.445983361597	4
0	13053	4302.005904210543	3
0	13059	4302.659395570514	2
0	13064	4302.802700173747	1
0	13069	4303.433841003022	0
0	13088	4307.63284899179	1
0	13089	4307.669650816697	0
0	13115	4312.79865297842	1
0	13119	4314.224354176664	2
0	13120	4314.703367071158	1
0	13130	4317.823445086072	0
0	13153	4323.359580853398	1
0	13155	4324.956469732451	2
0	13157	4327.07752021811	3
0	13158	4329.056251176424	2
0	13164	4330.074584237386	3
0	13166	4330.239087745208	4
0	13167	4330.42329754576	3
0	13175	4332.772071241762	4
0	13178	4333.511759737355	3
0	13183	4333.658558551803	2
0	13190	4335.161337526755	3
0	13191	4335.222831462854	2
0	13199	4336.637938854979	1
0	13207	4337.81089500007	2
0	13208	4338.371531157863	1
0	13215	4339.599456260599	2
0	13216	4341.510119336373	1
0	13223	4343.145934103181	2
0	13224	4344.058810193461	1
0	13232	4345.528400988038	2
0	13235	4347.162006771482	1
0	13243	4349.869140743364	2
0	13244	4349.941645077542	1
0	13251	4350.604675377494	2
0	13254	4351.155673918408	1
0	13260	4355.283151276388	0
0	13272	4355.861375518245	1
0	13274	4359.894508564576	2
0	13275	4360.901169465164	1
0	13280	4361.284780929381	0
0	13315	4373.68680729895	1
0	13316	4375.542031191171	0
0	13324	4379.820354098683	1
0	13327	4381.90867024928	2
0	13328	4382.469793124931	1
0	13333	4382.862218866703	0
0	13361	4391.358409498974	1
0	13362	4392.844980930704	0
0	13370	4396.046232016192	1
0	13371	4397.545215125132	0
0	13379	4398.676098082727	1
0	13380	4399.377109491453	0
0	13415	4410.682565211556	1
0	13416	4414.833225261698	0
0	13427	4415.686941326527	1
0	13429	4416.897609540139	0
0	13436	4418.081094995965	1
0	13437	4421.067892900466	0
0	13462	4428.15313253985	1
0	13466	4429.959179451316	2
0	13470	4431.146688923543	3
0	13471	4431.555236001778	2
0	13476	4432.340890857603	1
0	13481	4432.625904827388	0
0	13490	4434.884321802612	1
0	13491	4435.051174547549	0
0	13505	4438.259751091957	1
0	13513	4442.517786967267	2
0	13516	4443.916060349262	1
0	13526	4446.300209709229	2
0	13528	4447.334959218851	3
0	13529	4447.570518979415	2
0	13536	4447.678036473908	3
0	13538	4451.08683629473	2
0	13543	4452.683925717915	1
0	13550	4456.253356268618	0
0	13556	4456.422503075729	1
0	13560	4459.012100415129	0
0	13590	4467.119979365206	1
0	13593	4468.966159454995	0
0	13599	4469.350792255486	1
0	13604	4471.186904072416	0
0	13640	4484.732924046483	1
0	13641	4486.591712385405	0
0	13666	4491.185424367903	1
0	13669	4493.611897846009	0
0	13675	4495.291026183827	1
0	13678	4496.442998740252	2
0	13679	4498.148846328573	1
0	13689	4499.772842196939	2
0	13691	4500.752794028819	3
0	13693	4501.686632191207	4
0	13694	4504.783390968545	3
0	13701	4505.806096118603	2
0	13710	4507.554912872594	1
0	13715	4507.605638983077	0
0	13721	4508.272159834535	1
0	13723	4509.788547454993	2
0	13726	4513.296266452434	1
0	13731	4513.58565961215	0
0	13739	4514.414683983211	1
0	13740	4515.296210201179	0
0	13771	4523.521908614404	1
0	13772	4524.996236337361	0
0	13786	4528.739163554722	1
0	13787	4529.149000387775	0
0	13806	4533.53199277988	1
0	13807	4534.656357119879	0
0	13824	4540.582491578406	1
0	13826	4541.006104905231	0
0	13838	4544.305090925398	1
0	13839	4546.550701043793	0
0	13861	4551.673985354068	1
0	13863	4552.811362250869	2
0	13866	4554.298877972333	1
0	13874	4557.379619256665	0
0	13885	4558.317506250982	1
0	13888	4559.055371992439	0
0	13897	4562.314665351544	1
0	13900	4564.847419586118	0
0	13924	4577.723472474203	1
0	13925	4579.722357650516	0
0	13941	4588.916441095566	1
0	13943	4589.258040527474	2
0	13947	4589.622223434538	3
0	13953	4592.451820976666	2
0	13959	4594.22619977174	1
0	13965	4597.38957983392	0
0	13972	4598.090823686805	1
0	13973	4598.457566117667	0
0	13982	4600.722099386159	1
0	13984	4601.081965274517	2
0	13990	4603.112041175163	1
0	14000	4605.67537743894	0
0	14006	4606.006871295656	1
0	14009	4607.12999066149	2
0	14010	4609.308714517268	1
0	14015	4609.437903800511	0
0	14021	4610.053911139276	1
0	14024	4610.23213305885	2
0	14027	4611.601264651984	1
0	14037	4615.405363468792	2
0	14039	4615.413485869926	3
0	14041	4616.924462055411	2
0	14047	4618.404264385477	1
0	14054	4620.164370411428	0
0	14074	4627.141990791755	1
0	14079	4629.678353705256	0
0	14099	4634.777625966929	1
0	14103	4635.184376439013	2
0	14107	4637.228192927707	3
0	14110	4637.790150134359	4
0	14115	4638.680168647595	5
0	14120	4643.174300948105	4
0	14126	4644.280001394005	5
0	14127	4645.477446584598	4
0	14133	4645.781792634846	5
0	14137	4647.818468567634	6
0	14138	4647.977914021095	5
0	14144	4648.728230256243	6
0	14148	4654.544165006482	7
0	14150	4654.968114811297	8
0	14153	4655.960000666447	7
0	14159	4656.591369504296	8
0	14163	4660.34355596573	7
0	14170	4661.487316968908	8
0	14173	4662.527061714021	7
0	14179	4662.576688679622	8
0	14181	4663.809912982541	7
0	14189	4665.896407919855	6
0	14196	4667.004847242377	7
0	14200	4667.619979084902	8
0	14201	4667.684658918113	7
0	14210	4668.13469465687	6
0	14220	4669.124237416743	7
0	14221	4669.427179594383	6
0	14228	4673.336711692953	5
0	14235	4677.247890201643	4
0	14242	4678.265926416245	5
0	14243	4678.755930572911	4
0	14249	4679.35132361443	5
0	14256	4683.072527357366	4
0	14264	4686.300608339179	5
0	14267	4687.463961212308	4
0	14276	4693.896059471762	5
0	14279	4694.341331325935	6
0	14281	4694.754493349085	7
0	14282	4696.888246707462	6
0	14287	4699.072280544282	5
0	14292	4699.418323519626	4
0	14298	4701.322631990683	3
0	14305	4705.412514759485	2
0	14312	4707.54000659558	3
0	14314	4709.005048869565	4
0	14316	4710.003725004683	3
0	14325	4712.062097907593	4
0	14327	4714.370775423054	5
0	14331	4715.999797305998	6
0	14335	4717.80627250852	7
0	14336	4718.450243670202	6
0	14341	4719.546910000467	5
0	14347	4719.805059257652	4
0	14355	4720.656239247347	5
0	14357	4721.75860733936	6
0	14361	4723.178202731068	7
0	14362	4723.291912566368	6
0	14368	4723.805013810938	7
0	14371	4724.851339229073	8
0	14372	4726.66467062836	7
0	14379	4728.507160456056	8
0	14383	4731.235196496529	9
0	14384	4731.708449323863	8
0	14390	4731.905704530934	9
0	14391	4732.546293667583	8
0	14399	4733.65555615601	9
0	14402	4734.589980599659	8
0	14407	4734.718493408241	7
0	14412	4735.012234425107	6
0	14422	4739.239213155419	5
0	14429	4739.880981495875	6
0	14431	4741.106770348134	7
0	14433	4742.686170422989	8
0	14434	4742.829257572447	7
0	14440	4742.966487318538	8
0	14441	4743.080037924263	7
0	14446	4743.198402790379	6
0	14451	4743.21785899414	5
0	14458	4745.304191936547	4
0	14466	4747.39477651688	3
0	14472	4748.428986828882	2
0	14478	4748.917523623983	3
0	14481	4751.793726150138	2
0	14491	4754.007625718782	1
0	14496	4754.802781714849	0
0	14518	4758.217501797029	1
0	14520	4759.865704764831	2
0	14521	4761.128926446454	1
0	14530	4764.100042572857	2
0	14531	4765.415151035731	1
0	14541	4768.977474581089	2
0	14542	4770.383097948612	1
0	14547	4770.86955144373	0
0	14569	4782.563474827634	1
0	14571	4783.470035627628	2
0	14576	4788.545626422135	3
0	14577	4789.230567903868	2
0	14585	4790.415580657998	1
0	14591	4790.654461836143	0
0	14624	4797.459979217207	1
0	14625	4799.721245968278	0
0	14631	4800.011913679532	1
0	14634	4801.540558313336	0
0	14651	4805.948599199404	1
0	14652	4806.044388626314	0
0	14659	4807.024785776398	1
0	14660	4807.758835730482	0
0	14667	4807.876443005449	1
0	14669	4808.718538468393	0
0	14675	4809.679414869594	1
0	14677	4811.891613527513	0
0	14705	4820.470851192206	1
0	14706	4821.481893755113	0
0	14728	4834.311163435093	1
0	14730	4834.561116048249	2
0	14733	4834.996946675259	1
0	14739	4835.701284282891	2
0	14743	4837.176147078706	3
0	14744	4838.401953697945	2
0	14749	4839.888832096352	1
0	14757	4841.781344528904	0
0	14767	4847.773897120173	1
0	14771	4851.283315854486	2
0	14772	4851.821247888836	1
0	14777	4851.972744902521	0
0	14788	4852.657519319068	1
0	14790	4853.466307554541	0
0	14799	4853.833725487972	1
0	14806	4857.63356501525	2
0	14813	4860.94767946783	1
0	14818	4861.39250921057	0
0	14835	4865.102584627806	1
0	14837	4865.33854965866	2
0	14840	4867.642482898326	1
0	14846	4872.72179274752	0
0	14865	4881.41724573078	1
0	14866	4884.134604810742	0
0	14873	4885.448818924571	1
0	14875	4887.34493586657	2
0	14876	4888.331764422322	1
0	14882	4890.83404890866	0
0	14912	4898.036992167008	1
0	14916	4898.78238378415	2
0	14920	4903.276167394776	3
0	14922	4904.364774209253	4
0	14924	4905.831086217048	5
0	14925	4906.429993738569	4
0	14931	4907.082539529065	5
0	14933	4908.092342890592	4
0	14939	4909.416597535822	3
0	14946	4911.164553410423	4
0	14951	4917.428979290457	3
0	14956	4917.973166499549	2
0	14964	4924.069318760297	1
0	14971	4925.366622363547	2
0	14972	4926.064002620274	1
0	14977	4926.235250020796	0
0	14988	4929.215161084998	1
0	14989	4929.987570024828	0
0	15001	4934.267861368595	1
0	15002	4935.097428125007	0
0	15008	4935.445691219766	1
0	15010	4938.400622012715	0
0	15031	4940.75976110677	1
0	15032	4941.164615941117	0
0	15045	4943.792546102488	1
0	15046	4944.009798054381	0
0	15058	4948.73648386439	1
0	15059	4950.339619734824	0
0	15069	4951.964330708338	1
0	15075	4960.788560059651	2
0	15077	4961.112344151407	3
0	15078	4962.347889110935	2
0	15084	4962.890912315732	1
0	15090	4963.931398764367	0
0	15103	4968.293486343218	1
0	15104	4969.24876497382	0
0	15111	4970.113477986841	1
0	15118	4975.135121612683	2
0	15119	4975.519048794336	1
0	15125	4976.000495427094	2
0	15126	4976.90898822018	1
0	15132	4977.323875406867	2
0	15137	4977.99084624106	1
0	15142	4978.092044633962	0
0	15149	4979.557359751143	1
0	15153	4981.839040830591	0
0	15177	4987.164733699519	1
0	15179	4987.670703366682	2
0	15191	4990.29186440625	3
0	15193	4990.562936480372	4
0	15195	4990.696867462206	5
0	15196	4990.808651985354	4
0	15201	4991.64260749793	3
0	15205	4992.175617103816	4
0	15207	4992.511317543896	5
0	15210	4994.33199287652	4
0	15221	4996.791796824527	3
0	15227	4996.835382772537	4
0	15229	4998.155551178891	3
0	15238	4998.722292548823	2
0	15246	4999.656033119113	3
0	15247	5000.204718305276	2
0	15256	5005.328654094724	1
0	15262	5005.545509357101	2
0	15265	5007.065971079111	3
0	15266	5008.560246887184	2
0	15275	5010.864364268469	3
0	15279	5016.049961322268	4
0	15280	5017.740422711397	3
0	15285	5017.783119256227	2
0	15291	5018.354556431613	3
0	15294	5019.050505319701	4
0	15298	5020.996297325826	5
0	15300	5022.994208788652	4
0	15309	5025.036680779661	3
0	15315	5025.593471744709	4
0	15318	5027.45404224346	5
0	15320	5028.313669721124	4
0	15326	5029.464833442934	5
0	15328	5031.17340482383	4
0	15334	5034.310201231694	3
0	15340	5035.139009356102	4
0	15345	5038.238609016915	5
0	15347	5038.793135656695	6
0	15348	5039.191809955497	5
0	15354	5042.960983819914	4
0	15361	5043.149792113579	5
0	15363	5045.480948984596	6
0	15369	5048.032048491982	7
0	15371	5052.168725116734	8
0	15373	5055.120402695313	9
0	15377	5055.343778129502	10
0	15379	5055.367602006269	11
0	15384	5058.33470763645	10
0	15391	5060.887856224029	11
0	15392	5061.44687165158	10
0	15397	5061.478954712086	9
0	15404	5062.911743876153	10
0	15406	5064.73775143477	11
0	15409	5065.419938955552	10
0	15415	5066.62510851381	9
0	15423	5066.973199533443	10
0	15424	5067.8076362777	9
0	15431	5069.985195292244	8
0	15437	5070.288404211835	9
0	15439	5070.805534739354	10
0	15443	5071.408468664799	9
0	15448	5071.517654932564	8
0	15454	5071.570548297794	9
0	15456	5071.680365383772	10
0	15463	5075.714422582357	11
0	15465	5077.010578038694	10
0	15470	5077.301473170625	9
0	15476	5079.433686376894	8
0	15483	5082.177850769305	7
0	15489	5083.016847610629	6
0	15495	5085.958279937626	5
0	15503	5087.947833129751	4
0	15508	5088.581087051591	3
0	15514	5089.989862047566	4
0	15515	5090.170166567402	3
0	15525	5092.226292461768	2
0	15532	5095.479377878884	1
0	15539	5096.74879658769	0
0	15574	5101.675855570019	1
0	15576	5101.967235596122	2
0	15578	5103.830619218008	1
0	15585	5104.270530641498	2
0	15586	5104.570173665428	1
0	15591	5105.145495890187	0
0	15618	5109.889249707534	1
0	15624	5112.227594526467	2
0	15626	5112.373577381443	3
0	15632	5115.034366233522	2
0	15638	5117.423709562097	1
0	15644	5117.628188594399	2
0	15646	5118.759385026512	1
0	15653	5119.622780539365	2
0	15655	5120.018321406934	3
0	15657	5122.046833847684	4
0	15664	5124.271829231144	3
0	15671	5126.767693127279	2
0	15680	5127.788680649936	3
0	15681	5127.842827907753	2
0	15686	5128.554414007958	1
0	15693	5129.922526109133	0
0	15703	5131.950914211596	1
0	15706	5132.643248752682	0
0	15738	5147.316730748412	1
0	15739	5147.78533670673	0
0	15745	5148.073380305529	1
0	15751	5151.780291941569	0
0	15760	5153.356595206527	1
0	15761	5154.266419045409	0
0	15767	5155.347612033648	1
0	15771	5156.849786457631	2
0	15773	5158.158306240754	3
0	15776	5159.348511141484	4
0	15783	5166.35760262741	5
0	15784	5167.227234754556	4
0	15789	5167.68062833176	3
0	15796	5167.924697756621	4
0	15799	5171.62152275588	5
0	15803	5172.467700393862	6
0	15805	5172.479729664784	7
0	15808	5174.803230796159	6
0	15814	5175.171377527381	5
0	15819	5175.866466741478	4
0	15824	5176.2683613607	3
0	15830	5177.516687319237	2
0	15837	5178.719646678781	3
0	15839	5179.076278634803	4
0	15844	5183.612546536837	3
0	15850	5184.201024291332	4
0	15855	5185.559274946422	5
0	15859	5187.40547652335	4
0	15868	5191.814980111248	5
0	15870	5193.853579997272	6
0	15871	5194.226545564046	5
0	15877	5197.221751969429	4
0	15885	5198.681266658941	3
0	15893	5200.604100994798	4
0	15897	5201.784105001693	3
0	15904	5202.897619119746	4
0	15905	5203.344584725818	3
0	15913	5206.46574108262	2
0	15919	5207.512611157949	3
0	15921	5207.875091653505	4
0	15922	5210.090428803353	3
0	15928	5212.118237495069	4
0	15929	5213.022319221093	3
0	15935	5213.033445958843	4
0	15938	5214.8149956854	5
0	15946	5217.066600124759	4
0	15953	5219.280928479383	5
0	15955	5222.269862203698	6
0	15956	5222.868797721088	5
0	15961	5223.122252906831	4
0	15967	5223.972515607307	3
0	15974	5224.150018468949	2
0	15980	5224.277322985373	1
0	15986	5224.780198662072	2
0	15988	5225.028432801716	3
0	15990	5226.429910275312	2
0	16002	5228.992421705603	1
0	16009	5230.835043699652	2
0	16011	5231.856614693491	3
0	16013	5232.104885140722	4
0	16015	5232.232219885251	5
0	16018	5234.289508787653	4
0	16023	5236.314093932173	3
0	16028	5237.373801927738	2
0	16034	5237.537252891187	3
0	16037	5239.73393422611	4
0	16038	5239.97251579663	3
0	16050	5244.058254254816	2
0	16055	5245.055915580073	1
0	16062	5247.390607493004	0
0	16068	5247.780629607518	1
0	16071	5249.146117477739	2
0	16073	5249.387787989975	3
0	16075	5250.662236888257	4
0	16077	5250.678424074618	5
0	16079	5251.695546044562	6
0	16080	5253.544736049798	5
0	16085	5254.169748879801	4
0	16091	5255.868568138048	3
0	16098	5256.635900618371	2
0	16104	5258.101389872112	1
0	16113	5259.623076794953	2
0	16114	5259.787322959078	1
0	16119	5260.025606908191	0
0	16136	5261.412894171828	1
0	16139	5261.655624563042	0
0	16145	5262.800778058842	1
0	16148	5266.498451868689	0
0	16164	5272.459669991959	1
0	16165	5275.357456123421	0
0	16186	5279.57022795867	1
0	16198	5284.87247058154	0
0	16239	5300.394120387794	1
0	16243	5301.300234424646	0
0	16285	5314.070123355575	1
0	16287	5317.813161765274	2
0	16288	5320.294543226639	1
0	16295	5321.519046976263	2
0	16297	5322.54870218204	3
0	16298	5322.813515659633	2
0	16312	5328.35955085864	1
0	16317	5328.469726489719	0
0	16335	5337.808502838668	1
0	16336	5339.206814428036	0
0	16360	5345.446220847242	1
0	16361	5345.97002497555	0
0	16376	5349.828343293893	1
0	16379	5352.472822225144	0
0	16390	5354.245575989644	1
0	16393	5354.926831971603	2
0	16394	5356.976366819657	1
0	16399	5357.339928972012	0
0	16412	5359.209427790189	1
0	16413	5359.536469417718	0
0	16444	5375.582747305271	1
0	16445	5376.889309862243	0
0	16451	5377.024100058175	1
0	16453	5379.203420968112	0
0	16473	5386.976066447109	1
0	16474	5387.490183784274	0
0	16480	5387.679882417764	1
0	16482	5391.179040228435	0
0	16491	5396.391767711793	1
0	16492	5396.452114013986	0
0	16517	5407.297548525088	1
0	16523	5408.896504903375	2
0	16524	5409.61492241783	1
0	16530	5409.803210279924	0
0	16545	5413.821237845114	1
0	16546	5415.784778123704	0
0	16559	5423.54970327283	1
0	16560	5424.25297195874	0
0	16567	5425.063899483117	1
0	16571	5429.034536590735	0
0	16585	5434.68723518512	1
0	16586	5435.280859448521	0
0	16607	5440.18814149113	1
0	16610	5440.617471427345	0
0	16636	5447.126241535669	1
0	16637	5447.799090557702	0
0	16649	5451.644370230448	1
0	16650	5452.570863346707	0
0	16662	5457.244395992991	1
0	16663	5458.604588136694	0
0	16683	5462.143718461096	1
0	16685	5463.552737923187	2
0	16686	5463.577673248867	1
0	16691	5464.110882590877	0
0	16697	5465.073963446717	1
0	16700	5466.361937542136	0
0	16709	5466.975532350103	1
0	16711	5467.186142931255	2
0	16713	5467.460128869949	3
0	16719	5473.036219679998	4
0	16722	5476.616884677332	5
0	16724	5476.844908571829	6
0	16726	5478.796150717753	7
0	16727	5479.287420519766	6
0	16733	5479.694704354922	7
0	16738	5480.942277966212	8
0	16741	5481.34152465209	7
0	16746	5481.68831274901	6
0	16758	5487.153249033174	7
0	16759	5487.628868755803	6
0	16765	5488.251561074998	7
0	16767	5490.665946883173	6
0	16773	5493.035145485895	5
0	16778	5493.081164393547	4
0	16784	5493.471163551437	5
0	16786	5494.654491267693	4
0	16791	5494.66049573588	3
0	16799	5495.879786275794	2
0	16809	5500.050875642219	3
0	16811	5502.519871424035	4
0	16812	5502.979742185788	3
0	16818	5503.216632045315	4
0	16819	5503.727193006714	3
0	16828	5504.865616411601	4
0	16829	5505.099005161173	3
0	16835	5506.059786169661	4
0	16838	5508.644273431114	3
0	16843	5508.813852223059	2
0	16851	5511.616126557796	1
0	16856	5512.896689263519	0
0	16862	5513.860467896389	1
0	16865	5517.989029269444	0
0	16872	5518.614620678959	1
0	16874	5519.877387206649	2
0	16879	5524.136018763884	1
0	16886	5525.083237860352	2
0	16887	5525.347720845392	1
0	16893	5525.626090754106	2
0	16895	5529.16542361987	3
0	16897	5531.024145458867	4
0	16898	5532.311595344484	3
0	16903	5532.956271244069	2
0	16909	5533.521777776647	1
0	16918	5536.631673823998	0
0	16938	5542.698632817002	1
0	16939	5543.12364736282	0
0	16945	5543.198555637927	1
0	16947	5545.121803310806	0
0	16997	5562.548117909567	1
0	16999	5563.533816527238	2
0	17001	5563.995588805669	3
0	17002	5565.703924279184	2
0	17008	5567.275070770993	1
0	17013	5567.377470068198	0
0	17033	5571.71489989949	1
0	17038	5576.291336638355	0
0	17049	5578.910328780547	1
0	17051	5580.830041877862	2
0	17054	5582.27263741563	1
0	17059	5583.024102531384	0
0	17075	5586.711556464923	1
0	17076	5587.053152806956	0
0	17093	5593.584998118508	1
0	17095	5595.892337241544	2
0	17097	5596.659837666108	3
0	17100	5596.865338829144	2
0	17109	5602.393398246365	3
0	17110	5603.50086215945	2
0	17115	5604.613215347869	1
0	17120	5605.039103895185	0
0	17131	5607.91146544264	1
0	17133	5608.411309486775	2
0	17135	5609.513255707647	3
0	17139	5610.81325484997	2
0	17145	5611.344243321149	3
0	17148	5614.330278318462	4
0	17151	5616.285143610331	3
0	17158	5617.054360033925	2
0	17164	5617.081537845426	3
0	17165	5618.626654198859	2
0	17172	5620.458893606552	1
0	17177	5620.813843061138	0
0	17191	5624.536716249688	1
0	17193	5625.587310404469	0
0	17202	5627.097066879914	1
0	17204	5630.466575955746	2
0	17206	5633.772570444541	3
0	17207	5634.516313908481	2
0	17213	5635.113565287826	1
0	17219	5636.256485575905	0
0	17244	5643.64163213664	1
0	17246	5645.0843562193	2
0	17248	5647.462863273499	1
0	17257	5652.412635779884	2
0	17258	5653.52828358534	1
0	17264	5653.788186026569	0
0	17271	5655.729128269637	1
0	17272	5656.969711978134	0
0	17295	5661.806694275831	1
0	17298	5664.278144393904	2
0	17299	5664.302577929278	1
0	17305	5665.030344166117	2
0	17306	5665.139959508086	1
0	17311	5666.129224329016	0
0	17335	5668.874509893547	1
0	17340	5670.386085821019	2
0	17341	5672.465157524881	1
0	17346	5673.496430137922	0
0	17353	5675.436668806228	1
0	17357	5675.942518656807	0
0	17388	5689.438094731083	1
0	17390	5689.85113447331	2
0	17394	5690.979071773471	3
0	17395	5694.32518535884	2
0	17401	5694.871760256343	3
0	17402	5694.90141146592	2
0	17409	5696.425890251796	1
0	17415	5696.56057906763	2
0	17417	5697.608556532235	1
0	17422	5698.086625543461	0
0	17443	5706.952548671128	1
0	17445	5708.325306701907	2
0	17449	5708.678272892437	3
0	17451	5709.549850106829	4
0	17453	5710.296131720929	3
0	17458	5710.769292616656	2
0	17465	5712.172631538774	1
0	17470	5713.226071125377	0
0	17489	5716.340054742319	1
0	17492	5717.523705315896	0
0	17516	5726.286169928945	1
0	17517	5727.240854747893	0
0	17534	5733.643950406161	1
0	17536	5734.096121025382	2
0	17538	5736.488772274083	3
0	17542	5738.523829954316	2
0	17547	5738.741565806283	1
0	17552	5738.876104775524	0
0	17566	5743.713936251581	1
0	17567	5745.625457542601	0
0	17573	5746.034954206171	1
0	17575	5746.850331603772	2
[...]
4	79593	25946.818916532215	4555.7856012368
4	79599	25948.481365899367	4556.7763807884
4	79606	25954.900044502007	4560.9483933033
4	79615	25957.702566785284	4558.8517892541
4	79632	25967.688724240737	4563.4818017568
4	79643	25978.697363642961	4564.9187516608
4	79664	25985.194011231344	4567.6949957706
4	79691	25995.962006298386	4575.3810631639
4	79754	26008.880071049922	4576.5270797606
4	79890	26049.028168753149	4613.8524411907
4	79897	26051.933036624557	4612.2354657292
4	79906	26053.228093058341	4609.5076994597
4	79927	26062.062161326649	4596.1927634258
4	79932	26068.838649954663	4596.9403727418
4	79939	26072.298781394123	4596.1021111334
4	80089	26128.498227232472	4651.4095690009
4	80117	26139.651152564551	4660.1616072277
4	80125	26140.952533642963	4660.444938253
4	80135	26143.499444340966	4661.5361282408
4	80140	26144.620627623621	4647.4799481131
4	80145	26145.368030044819	4644.4371446053
4	80153	26151.062063947122	4647.0489644373
4	80166	26159.453522713648	4628.8527830266
4	80171	26162.261251682141	4631.3282546016
4	80180	26163.644545311213	4602.9580512768
4	80190	26166.306118773766	4604.0750844589
4	80204	26179.292423960846	4613.8769691123
4	80223	26187.376278135424	4619.8079740734
4	80312	26224.408181912216	4652.1510456363
4	80333	26230.033967482039	4657.4003462708
4	80338	26230.069068911639	4653.6797910331
4	80344	26231.555201140128	4652.4422160625
4	80349	26236.465648189877	4655.9448236904
4	80360	26242.780459993242	4654.5189458864
4	80375	26246.91144304792	4658.1782199379
4	80404	26257.125297755733	4660.464969316
4	80415	26258.906712783771	4646.0963538218
4	80426	26262.035909682203	4639.9517085961
4	80439	26265.484563930698	4635.6264605905
4	80464	26277.34604362514	4645.3300217434
4	80600	26334.984169831639	4696.7500916819
4	80605	26337.532750904045	4694.2362255721
4	80610	26339.183707998947	4685.9268181169
4	80615	26341.403601069869	4686.0565900391
4	80626	26346.679713521421	4676.9959926212
4	80648	26354.405660983423	4678.3767245577
4	80658	26359.594841679563	4671.3405370113
4	80671	26363.331891516825	4671.1303027493
4	80727	26387.259570222373	4692.3753667176
4	80757	26394.739436374537	4699.8528615631
4	80762	26395.731302053404	4700.3692523847
4	80773	26398.391134014228	4699.095993367
4	80786	26401.962081976226	4702.0421405036
4	80791	26403.651286671206	4701.8540691095
4	80798	26404.05178285637	4685.0608869617
4	80819	26409.5696910417	4688.8582056958
4	80843	26413.358684745617	4688.8632805131
4	80851	26414.995398022083	4690.3583758108
4	80861	26415.826373271921	4683.8803247108
4	80868	26417.061966509298	4678.8868989867
4	80891	26425.968725977145	4686.9512282016
4	80917	26433.37299040921	4685.7110297933
4	80930	26439.390643683982	4684.4345761295
4	80951	26444.859499620191	4687.0468966495
4	80985	26458.373145865442	4700.379808133
4	80995	26458.813391234771	4693.2222752529
4	81002	26461.66775067664	4694.8274059781
4	81022	26476.225995784586	4696.2197940969
4	81100	26496.275293050229	4714.7440204378
4	81105	26496.313443498875	4713.7704979623
4	81114	26498.913024464798	4707.2297946578
4	81198	26526.875478054264	4728.5036574074
4	81203	26529.101283399051	4725.5655850485
4	81210	26533.788085112707	4729.1606585692
4	81268	26551.653086665339	4727.3836075891
4	81291	26561.126522537282	4732.3386291063
4	81296	26561.275120759547	4721.3212215737
4	81303	26562.898899050118	4717.6347023241
4	81319	26569.025980954913	4722.1963215818
4	81364	26589.485310378446	4732.5263899628
4	81426	26606.683466652293	4744.1604340273
4	81433	26610.217439983138	4747.0213217039
4	81438	26611.515835479573	4741.9697200544
4	81443	26611.8718654142	4740.8949464842
4	81452	26614.885882741445	4741.3540401166
4	81601	26648.960319038697	4774.2872649159
4	81609	26649.925272501831	4775.1306347797
4	81631	26655.786575008151	4774.9239996894
4	81636	26657.274706385068	4775.8238975602
4	81641	26658.762283999099	4761.4458562876
4	81654	26664.343883919477	4764.2940846858
4	81704	26683.70976450485	4782.3196516441
4	81722	26691.315596418615	4786.7371479268
4	81741	26696.775047995683	4788.8990170066
4	81750	26704.616215737775	4788.7258585013
4	81806	26723.060700747087	4803.0381186882
4	81811	26724.498071798586	4799.6723924685
4	81816	26728.2174521272	4795.1079761418
4	81823	26733.852391870371	4795.9287356238
4	81846	26747.851165590986	4809.4371349452
4	81874	26755.584359860369	4812.2934585888
4	81915	26762.031723833044	4815.3217839261
4	81927	26765.748485747673	4818.6490911932
4	81940	26775.472569228266	4806.6107627328
4	81945	26775.939365224404	4781.8013562673
4	81953	26779.091806750997	4776.8847660155
4	81962	26781.235049068656	4772.2060779925
4	81992	26789.453945797616	4780.4151255991
4	81997	26792.547507589209	4783.3123025174
4	82002	26795.00757293617	4782.2060142254
4	82009	26796.300881562528	4776.3008424608
4	82051	26801.594415829936	4779.7316270707
4	82061	26808.014382007336	4781.5487280931
4	82076	26814.395784306325	4783.2745823704
4	82113	26825.218535777395	4785.3026970486
4	82152	26835.241606973323	4782.0844414801
4	82160	26835.915142413947	4773.1648049568
4	82171	26841.011829067378	4769.7303019746
4	82176	26841.491642352661	4756.7635403663
4	82189	26847.513237849325	4746.7112036725
4	82212	26853.240974116131	4748.0526975414
4	82236	26856.951868332753	4746.881334254
4	82242	26859.983944010208	4746.8914548374
4	82261	26868.425106735304	4749.6743694781
4	82504	26943.402338694955	4819.1486950793
4	82521	26951.100235112014	4826.7733238106
4	82547	26953.387478223238	4827.8363089423
4	82556	26957.027875780288	4831.24048738
4	82587	26970.581712650421	4844.4672972973
4	82596	26973.109746494701	4843.3629675584
4	82607	26979.883048843353	4847.7916171725
4	82618	26986.639231912018	4849.8703906177
4	82688	27004.413000864639	4851.2870460526
4	82693	27004.427094757123	4847.1883346
4	82705	27010.404349232028	4842.6077676611
4	82720	27015.253292813183	4830.6358772068
4	82725	27017.485932800064	4822.7069428366
4	82736	27022.532947204751	4820.9159064951
4	82765	27031.002440705404	4817.5935016379
4	82853	27058.577166026714	4838.0824591914
4	82868	27061.789984159445	4839.5646825303
4	82925	27073.246733466761	4849.9405878944
4	82938	27079.490837454952	4854.5162276136
4	83010	27105.984451874584	4880.6566738911
4	83059	27121.564127615812	4893.8012255537
4	83074	27129.396768081413	4897.2043611251
4	83081	27131.891580787662	4891.0234164794
4	83086	27131.954996339785	4886.0181920514
4	83093	27134.388002366798	4884.3170205545
4	83116	27137.702186978097	4874.2178377822
4	83135	27140.987895015183	4874.7921612367
4	83150	27146.61769214919	4877.8062839243
4	83326	27190.648090347859	4912.9543485527
4	83331	27191.0452082689	4906.9754590539
4	83338	27194.373794389739	4906.5173002165
4	83348	27196.634949410316	4901.7224866412
4	83381	27203.455012997271	4903.4943453781
4	83396	27218.219637898643	4915.718075089
4	83401	27218.490394555837	4910.406786433
4	83412	27225.133858506057	4911.5434113826
4	83459	27240.374004845724	4923.1167335879
4	83480	27248.351999947581	4929.1739743215
4	83485	27250.719803354226	4926.571092215
4	83492	27254.523829274012	4919.3222258134
4	83507	27259.008352158367	4921.9211993565
4	83574	27288.008787185216	4948.4018333626
4	83598	27293.354018488388	4952.1702514893
4	83648	27311.722203137232	4967.0548742876
4	83653	27311.838397651279	4953.7013245315
4	83664	27317.827256533526	4954.2158829685
4	83712	27330.392258873409	4966.5529451459
4	83719	27333.721148241709	4952.3527459403
4	83735	27338.280008316596	4956.3480629598
4	83750	27342.219048174673	4956.8182920061
4	83779	27351.07633552951	4960.2728149701
4	83815	27357.617125357169	4961.2545555052
4	83820	27359.044430507564	4954.878317322
4	83827	27360.594027118307	4950.7914034164
4	83834	27363.772665384298	4948.0584417025
4	83839	27367.784202525543	4951.7109000023
4	83848	27370.322016584372	4931.0438324593
4	83873	27376.268711367889	4930.9415188374
4	83930	27392.149503205058	4937.5123421851
4	83935	27392.738741924855	4936.2389415419
4	83950	27406.096095659447	4948.0085782185
4	84041	27437.156449044717	4967.5185310043
4	84053	27440.1318459414	4962.4060483749
4	84093	27460.670425603025	4977.8553880768
4	84102	27465.6186962735	4979.475713576
4	84153	27478.786476834929	4987.6361050867
4	84170	27484.001523690017	4985.798166288
4	84201	27491.845948526835	4990.3117473876
4	84309	27544.228008011053	5039.62103319
4	84315	27546.445616974701	5040.1162219249
4	84322	27549.831154873385	5029.3204535093
4	84335	27555.386661921805	5029.6322555196
4	84427	27583.708367106178	5053.1507443995
4	84433	27586.767807893852	5050.2436056349
4	84440	27587.067536844418	5048.0445409628
4	84445	27592.339390162609	5048.1215023161
4	84464	27603.569681355789	5058.4648029959
4	84614	27659.059016986252	5110.8840047122
4	84625	27660.334672998755	5111.3168936485
4	84632	27662.070395669689	5110.7363589076
4	84637	27662.427325573273	5105.9879195951
4	84642	27663.262202183553	5098.0589931455
4	84647	27663.758678661542	5095.0819681388
4	84654	27664.27703272293	5091.0865244964
4	84673	27669.249791623166	5086.6920583767
4	84775	27700.727906210472	5113.1770885423
4	84819	27717.055859839685	5128.6906793306
4	84853	27724.94810710311	5128.5571593354
4	84859	27727.616753949504	5118.9934114598
4	84866	27730.19871833348	5119.465556717
4	84974	27760.251207832288	5148.5124834345
4	84979	27760.804254589698	5149.0216071263
4	84985	27763.533858381473	5149.7294329733
4	84990	27763.545657824124	5137.2958198122
4	84995	27767.491653950504	5134.0881143206
4	85008	27774.150315181714	5135.0569834656
4	85052	27781.986987710545	5137.6213733117
4	85057	27782.47591553698	5134.5677847263
4	85066	27785.352722645025	5130.3587657311
4	85091	27793.193215065371	5132.359482021
4	85344	27893.81806639879	5209.9719285744
4	85367	27899.796991923589	5211.5100815946
4	85374	27901.985906919014	5211.3511054303
4	85388	27906.608550442324	5211.3476484987
4	85401	27909.976083928718	5212.6605101698
4	85408	27914.58726418469	5216.0448000233
4	85418	27916.469361871683	5217.5679254123
4	85428	27920.087253909286	5215.0206004365
4	85461	27928.452913009619	5222.1247474152
4	85484	27932.976700448588	5219.3630976799
4	85489	27935.80456658627	5213.2696892869
4	85497	27938.806657701047	5208.8592563736
4	85585	27960.517321139447	5215.8190174653
4	85590	27961.408355891169	5215.7277546432
4	85597	27963.331568945419	5196.6753653166
4	85618	27970.895773393748	5202.9194116529
4	85745	28017.481926211905	5239.6565462189
4	85751	28019.819153552645	5236.9398570853
4	85766	28032.031695734477	5245.3921512052
4	85817	28054.018883897392	5262.9432647043
4	85827	28057.401424090902	5254.1746317831
4	85841	28059.950201609558	5252.0617343785
4	85846	28061.981115351689	5249.9662472277
4	85853	28063.031451101113	5250.6623147627
4	85864	28065.401800600222	5248.2390612729
4	85896	28079.484062043292	5261.4859472184
4	85970	28096.161917695923	5275.2435566454
4	85986	28101.424463628955	5249.7597786602
4	85997	28103.975222141931	5228.3553913636
4	86004	28105.924225751431	5209.6291272755
4	86011	28106.965123856065	5209.8392145723
4	86023	28108.775740593932	5208.9516367615
4	86043	28112.877121921484	5194.5060614273
4	86107	28128.468496489814	5207.6044633181
4	86113	28133.999138807166	5211.8570355307
4	86122	28134.759556145825	5211.8972300541
4	86161	28156.236573454865	5213.3032834697
4	86248	28176.571289870344	5233.5615178753
4	86256	28179.809298857233	5233.5704047769
4	86287	28191.289694966958	5242.299227535
4	86292	28191.894242529196	5238.5120163353
4	86301	28192.339841421311	5235.8354871225
4	86314	28200.428073082314	5239.849220328
4	86321	28205.396210060142	5219.7862149605
4	86340	28217.472503546492	5227.3295758572
4	86418	28247.506649911872	5248.9179131888
4	86510	28281.347817359841	5270.2885881768
4	86525	28288.282554008224	5259.9511156934
4	86530	28288.656146277654	5254.230025643
4	86535	28289.082715714806	5254.4084276307
4	86540	28289.678828510203	5241.5983956079
4	86548	28291.254126186995	5242.434098996
4	86553	28291.29973211982	5241.7264469055
4	86560	28297.657512907229	5245.9048087808
4	86576	28301.840605056296	5240.6343375797
4	86611	28310.436411633851	5246.1928768761
4	86841	28399.751532379873	5332.5747802554
4	86846	28405.213495853655	5336.1741123808
4	86856	28408.531230724301	5338.3081483891
4	86887	28415.709139162301	5338.9221765844
4	86902	28420.356344737512	5342.2620857117
4	86972	28431.727031507992	5345.0369869094
4	86981	28432.21834341757	5336.4863758574
4	86991	28434.735363557118	5336.6274153717
4	87002	28440.745783180267	5339.8432412504
4	87131	28482.993226982484	5377.2890515526
4	87138	28487.276152372089	5376.6500160012
4	87143	28488.492428237919	5375.0702159985
4	87150	28490.593613608121	5376.6496747728
4	87168	28495.424888902252	5376.0885891495
4	87175	28498.42151187568	5373.88687507
4	87195	28502.223120305237	5373.7066092161
4	87203	28506.068329038012	5363.2321221947
4	87223	28508.546655542443	5357.1017037533
4	87228	28508.671655984784	5350.3922711608
4	87233	28510.612849051912	5336.518372468
4	87242	28516.121024960328	5341.9749361926
4	87284	28523.305400482071	5348.4128040745
4	87289	28523.319822304235	5327.8002372141
4	87300	28528.116231069985	5324.1389704991
4	87320	28539.037237845113	5328.144048578
4	87333	28541.725526268542	5328.324519678
4	87353	28546.660452958637	5332.8942467821
4	87449	28579.893664301756	5359.8917197623
4	87456	28584.085819837348	5358.9975028111
4	87469	28587.029142984362	5361.9022820249
4	87800	28695.338958327304	5470.2102535618
4	87807	28699.472492165757	5468.3973476986
4	87814	28700.470254336909	5464.4781665808
4	87823	28709.322620665058	5472.9561801646
4	87912	28730.109727619358	5469.8281124206
4	87917	28731.134182994242	5469.5358300807
4	87932	28732.868207001439	5469.8456984497
4	87954	28734.887923066319	5467.0157799293
4	87959	28734.90546168745	5457.1593123436
4	87969	28738.704967745239	5456.9320373453
4	87986	28744.744192131152	5461.6105983931
4	88001	28754.386505932563	5468.262747918
4	88020	28761.096233114148	5470.8740200862
4	88031	28766.049246142789	5469.4930625918
4	88072	28781.713062465187	5477.7235167795
4	88091	28784.721567822504	5480.5519147065
4	88100	28789.373062339902	5483.6721947462
4	88133	28796.924066578009	5488.8949960111
4	88158	28802.15612123344	5490.6627612583
4	88171	28806.089894777996	5493.0769661405
4	88182	28810.931697584265	5496.9591436044
4	88189	28816.425092910869	5496.1851318181
4	88196	28819.493980060934	5498.472654602
4	88234	28826.635220039229	5503.3644732898
4	88239	28828.905810573298	5502.6459196617
4	88250	28831.997292761503	5489.8147636914
4	88260	28834.191723362677	5487.2249188575
4	88273	28838.672588622448	5484.0617986752
4	88305	28846.260643784933	5490.821090103
4	88316	28850.19603944561	5473.3021949843
4	88340	28855.874961708177	5478.2951078548
4	88352	28859.673089932504	5477.1132789603
4	88358	28859.93650498566	5466.3717390311
4	88367	28865.390718797672	5461.2480782293
4	88395	28869.96005319741	5456.5010853791
4	88409	28874.412068781603	5458.0640553203
4	88499	28899.133365789191	5482.6057340813
4	88504	28899.521553614588	5481.0147395572
4	88509	28900.6201264559	5480.1763124612
4	88515	28901.939555865708	5472.9232124047
4	88521	28904.920758477707	5468.5546876241
4	88526	28905.478627499144	5463.7257109386
4	88533	28906.722110953534	5463.4116843533
4	88550	28916.392131601834	5471.0835328428
4	88570	28922.730427478533	5460.5632994417
4	88580	28924.158775412665	5460.9949180929
4	88590	28928.38722862627	5462.8134041137
4	88608	28934.571524493159	5460.4525581501
4	88618	28938.575906444955	5461.76445326
4	88627	28943.581623954312	5464.9328487828
4	88669	28959.706381820244	5476.1029928454
4	88676	28962.001730643286	5474.622446509
4	88694	28967.350132990651	5477.2006736341
4	88722	28973.790214438309	5464.2054222939
4	88734	28976.001011796316	5455.0065326011
4	88742	28977.569748684609	5454.1600762259
4	88767	28988.217138892285	5460.5064397652
4	88778	28989.541389484411	5461.5635480849
4	88789	28995.651045004677	5464.028373291
4	88801	29001.07108596809	5467.9558336738
4	88810	29009.506039250634	5472.5252901064
4	88830	29019.404005471308	5473.3585206698
4	88838	29021.327965709523	5474.7187864993
4	89002	29063.928358339998	5510.9271974898
4	89009	29067.658921382306	5511.8212207724
4	89016	29070.064832961495	5510.9261742313
4	89030	29073.382665893839	5513.8939870198
4	89035	29073.542638920337	5513.7393258853
4	89040	29073.753633744322	5508.112971346
4	89047	29076.88725628337	5509.6567683558
4	89064	29080.986507044717	5512.5287297929
4	89071	29082.491646610004	5509.3952102167
4	89079	29084.742982985809	5507.5000251961
4	89084	29086.180939983023	5505.7255982443
4	89089	29089.300233746011	5497.9330630299
4	89101	29095.204782435255	5498.3621228644
4	89207	29131.880374564154	5522.0944475156
4	89221	29138.222128570154	5525.9969042746
4	89295	29161.582264326527	5528.8063295348
4	89309	29163.140963428635	5529.0296667486
4	89336	29170.845923424161	5529.5277073631
4	89351	29175.331142354624	5518.4076862293
4	89371	29180.74984982106	5522.8963810147
4	89583	29262.262850604367	5597.9458857944
4	89883	29359.455839626299	5694.0447429413
4	89892	29361.82004041561	5693.5204577041
4	89917	29367.285879344689	5681.5291193847
4	89928	29370.493524175528	5664.9924345209
4	89965	29375.849922207133	5667.5711156238
4	89985	29385.882847757218	5677.1617456022
4	90162	29446.137686319834	5721.1437432891
4	90172	29451.678365309124	5724.4437780519
4	90188	29454.722248336964	5726.8317077716
4	90193	29454.811873234084	5725.4938343127
4	90204	29458.663160788793	5728.1750483156
4	90222	29459.640071485345	5727.3543153056
4	90229	29461.674465584218	5724.5267253457
4	90234	29464.500794358739	5721.8475926792
4	90240	29466.007586315998	5709.8427469928
4	90252	29471.693719541479	5714.9743882931
4	90323	29488.545008968487	5729.7032300187
4	90328	29488.571728584743	5727.9248918418
4	90341	29491.93057418631	5717.6797929696
4	90400	29514.796236865465	5726.7026190786
4	90405	29515.050141795574	5724.7297636269
4	90411	29515.252760848086	5721.2090111827
4	90416	29518.321959005567	5715.0240517083
4	90421	29522.562330307062	5719.2542910487
4	90428	29526.34445738748	5717.4677884605
4	90549	29561.380514771895	5744.7873166172
4	90570	29564.83770959707	5741.769326652
4	90585	29572.710417849877	5747.3189510827
4	90629	29584.127960443357	5757.6870159365
4	90654	29587.92797554233	5755.0058175796
4	90663	29595.710561280177	5745.9339100098
4	90673	29598.592476693589	5737.324430463
4	90681	29601.373711424587	5733.9393357175
4	90695	29607.617034830381	5739.7964790949
4	90843	29659.25345129433	5786.1860540267
4	90862	29662.248876157024	5787.8478184704
4	90870	29665.298031405993	5782.7603631683
4	90882	29668.802143595434	5784.5069226933
4	90892	29669.999637966332	5775.2053362794
4	90898	29672.650324502144	5763.9678152419
4	90910	29675.074267391054	5765.654151124
4	91003	29705.056535983829	5781.5512679379
4	91008	29709.966032583445	5781.743602248
4	91013	29712.044022130021	5762.592054128
4	91024	29716.118530929331	5764.5124308388
4	91050	29720.730718906936	5767.0791767729
4	91064	29725.126535436851	5770.1774190109
4	91075	29731.036731968101	5763.3225264502
4	91136	29751.844647466366	5784.0997815637
4	91284	29791.0709306334	5819.1333727756
4	91291	29791.470659571121	5819.0286615348
4	91307	29798.582248603602	5821.3159953055
4	91313	29800.047779790185	5822.4509851414
4	91323	29801.39706009112	5822.1972579644
4	91328	29802.965332052713	5806.9094198151
4	91334	29806.46708262289	5804.0382042299
4	91339	29809.495931405792	5793.2559906518
4	91358	29817.125319977799	5789.1770088732
4	91437	29835.439083941341	5805.579785407
4	91442	29835.57376306707	5805.1102304616
4	91447	29838.248585430049	5799.4774653006
4	91462	29848.493595090829	5806.0757057696
4	91478	29858.497209722784	5795.0445953985
4	91491	29865.7053690743	5798.4670864863
4	91672	29933.84799352644	5859.1475170442
4	91681	29936.144332417758	5859.0550191249
4	91692	29938.656751002103	5847.5727045051
4	91759	29958.508448678039	5865.4747954388
4	91770	29964.58861576486	5866.2081419478
4	91777	29965.429352362164	5860.2381613158
4	91794	29980.242579942223	5861.0020507483
4	91850	29995.916437943849	5864.9110972073
4	91859	29999.415793486682	5866.749198384

