version 2
run Third-n3-14-20191016-17:05:00-15028
attr configname Third-n3
attr datetime 20191016-17:05:00
attr experiment Third-n3
attr inifile omnetpp.ini
attr iterationvars ""
attr iterationvarsf ""
attr measurement ""
attr network org.omnetpp.queueing.Pizza
attr processid 15028
attr repetition 14
attr replication ""
attr resultdir results
attr runnumber 14
attr seedset 14
param **.PS.maxInventoriedPS 3
param **.U1.interArrivalTime exponential(4s)
param **.U2.interArrivalTime exponential(6s)
param **.PS.serviceTimeForInventoryU1 exponential(1.4s)
param **.PS.serviceTimeForInventoryU2 exponential(1.4s)
param **.PS.serviceTimeDirectU1 exponential(1.8s)
param **.PS.serviceTimeDirectU2 exponential(1.8s)
param **.PS.probabilityProducing 0.8
param **.CS.serviceTimeU1 exponential(2.3s)
param **.CS.serviceTimeU2 exponential(2.3s)

vector 0 Pizza.EntryQueueU1 queueLength:vector ETV
attr interpolationmode sample-hold
attr title "queue length, vector"
vector 1 Pizza.CS queueLength:vector ETV
attr interpolationmode sample-hold
attr title "queue length, vector"
vector 2 Pizza.EntryQueueU2 queueLength:vector ETV
attr interpolationmode sample-hold
attr title "queue length, vector"
vector 3 Pizza.sink lifeTime:vector ETV
attr interpolationmode none
attr title "lifetime of arrived jobs, vector"
attr unit s
vector 4 Pizza.sink lifeTimeU1:vector ETV
attr interpolationmode none
attr title "lifetime of arrived jobs, vector"
attr unit s
vector 5 Pizza.sink lifeTimeU2:vector ETV
attr interpolationmode none
attr title "lifetime of arrived jobs, vector"
attr unit s
0	0	0	0
0	26	12.921474105548	1
0	28	13.601412545419	0
0	57	26.485718360927	1
0	58	26.609717122718	0
0	65	27.912943768699	1
0	67	30.969911734346	2
0	73	32.161339376159	3
0	74	32.418077999541	2
0	80	32.661879770999	3
0	82	32.880153583034	2
0	89	37.731872761968	3
0	91	37.840553741572	4
0	98	42.226232286614	3
0	104	43.331131519454	4
0	106	43.67090155835	5
0	108	45.346825502493	4
0	114	45.767327349835	5
0	115	46.730805800052	4
0	120	47.727368931836	3
0	128	51.614515830877	2
0	133	54.236467553481	1
0	140	55.661357483554	0
0	153	62.162804077345	1
0	154	62.277737245097	0
0	160	63.099021479511	1
0	164	64.231900757097	2
0	168	64.69827492442	3
0	169	65.153759528127	2
0	176	67.489468804179	3
0	178	68.169622129304	2
0	183	68.543882839501	1
0	189	70.664846567375	0
0	195	71.369749309484	1
0	197	71.746541115974	2
0	198	72.040618504024	1
0	205	73.988512223104	2
0	206	74.205493698569	1
0	213	75.295788759441	2
0	219	78.758665492736	3
0	220	79.021698804697	2
0	228	80.468134941117	1
0	233	80.607003080977	0
0	244	84.638245564399	1
0	246	86.135095476757	2
0	248	86.445471417748	3
0	253	88.307339454358	2
0	259	88.486020512351	3
0	260	88.958506804309	2
0	268	91.662458106819	3
0	271	95.826113539882	2
0	277	98.298492874649	1
0	283	99.761024703403	0
0	290	101.232124816117	1
0	294	105.598616690334	2
0	296	107.013153119558	3
0	297	107.722376538199	2
0	302	108.121591784907	1
0	308	108.53120468571	0
0	327	113.952042162075	1
0	328	114.251135772461	0
0	350	122.622068232373	1
0	354	122.939306733974	2
0	355	123.16307780643	1
0	363	124.387202670406	0
0	389	128.63030720741	1
0	390	128.702255495422	0
0	402	131.202828013625	1
0	403	132.870494599137	0
0	420	138.76543421836	1
0	421	139.457981846051	0
0	428	142.471702555736	1
0	429	143.002628109801	0
0	435	143.427427553663	1
0	437	143.512966808137	2
0	439	144.902447746835	3
0	441	146.064087896007	2
0	447	146.101914809532	3
0	448	146.372370292014	2
0	453	146.471797967934	1
0	462	151.679893839673	0
0	501	162.182655366382	1
0	503	162.750232819402	2
0	506	165.433167495001	1
0	512	167.164753690389	0
0	526	168.675139386132	1
0	527	169.051507480032	0
0	542	172.026151797514	1
0	550	174.61752890649	0
0	573	193.640451254295	1
0	575	194.816351248898	2
0	576	196.577805367188	1
0	581	196.740873014875	0
0	600	198.595876734378	1
0	602	198.6543398834	2
0	608	200.13169414712	1
0	613	200.353340263378	0
0	619	201.073518059082	1
0	620	202.522362230091	0
0	626	203.450607359374	1
0	628	204.371757618473	0
0	648	205.641381740455	1
0	655	209.075912568727	0
0	664	210.417623401888	1
0	668	212.445450421421	2
0	669	212.667525657775	1
0	678	216.237537351173	0
0	695	219.529267828246	1
0	697	220.144411858407	2
0	699	221.084439407307	3
0	700	221.795719390348	2
0	706	223.108184526549	1
0	712	223.938534010195	2
0	717	226.28943251319	3
0	719	226.784939487514	4
0	720	227.370940890082	3
0	726	227.917237094678	4
0	727	228.4708364101	3
0	732	228.837987637456	2
0	738	230.160818675176	3
0	745	235.380813862152	4
0	746	235.684754550298	3
0	752	237.121845326669	2
0	759	237.717283876361	1
0	766	240.066653978877	0
0	776	242.584532313086	1
0	780	245.301055642116	2
0	782	246.932846996766	3
0	783	247.466833809889	2
0	791	249.063966144606	1
0	797	253.025711216885	0
0	803	253.730344887271	1
0	804	254.080756343546	0
0	832	257.457481479929	1
0	833	259.314909831489	0
0	844	262.302754119585	1
0	847	263.483003300923	2
0	849	263.735857847581	3
0	851	263.924728957901	4
0	853	264.9166357104	3
0	859	265.384724802224	2
0	865	276.79855457027	1
0	870	276.917824245596	0
0	889	283.641489459433	1
0	890	283.810457800556	0
0	906	293.156221411789	1
0	907	295.181779285964	0
0	928	301.763587711881	1
0	930	301.836263616618	2
0	932	302.544763980496	3
0	934	303.47823209146	4
0	937	307.251003383991	3
0	947	310.678438647842	2
0	955	315.034750192483	1
0	960	316.35019853346	0
0	993	326.873224245561	1
0	994	327.097814405111	0
0	1011	330.054763823543	1
0	1013	330.384986213987	2
0	1014	330.749594041661	1
0	1021	333.673346195172	2
0	1022	333.864462768652	1
0	1028	336.905474939188	0
0	1042	346.536736767322	1
0	1045	350.287877305193	0
0	1051	350.900892186823	1
0	1053	352.202209632047	0
0	1068	355.455315782755	1
0	1069	356.601126021078	0
0	1076	359.764518983446	1
0	1078	361.678278491365	2
0	1079	363.229638822058	1
0	1085	366.205556652876	0
0	1100	373.315358794597	1
0	1102	376.139144701899	2
0	1108	379.562440060593	3
0	1112	382.558749545008	4
0	1113	383.075070873831	3
0	1118	383.549217079745	2
0	1123	383.86987425815	1
0	1129	385.087069018217	2
0	1131	385.724475053322	1
0	1136	386.835354075265	0
0	1145	393.498920865224	1
0	1149	395.103219296348	0
0	1171	406.181432956513	1
0	1173	406.277699558562	2
0	1175	406.738712212875	3
0	1176	408.723350885364	2
0	1182	409.305050772338	1
0	1190	411.781854240917	0
0	1198	413.04806760812	1
0	1200	415.657469285673	2
0	1202	415.849839685807	3
0	1204	416.893406534368	4
0	1209	424.675051874096	3
0	1215	426.174896778061	2
0	1220	426.745214507812	1
0	1225	427.116603935394	0
0	1242	431.472210678835	1
0	1244	431.528010263678	2
0	1246	433.532297556513	1
0	1252	433.549048652899	2
0	1253	434.513997706871	1
0	1259	434.835865491311	2
0	1260	435.840663378355	1
0	1267	439.157395056929	0
0	1273	440.048577240204	1
0	1279	442.373271277531	0
0	1285	444.952919410201	1
0	1287	445.424950105288	2
0	1290	446.205993244453	1
0	1298	446.840097438886	0
0	1304	447.628318576282	1
0	1310	449.356885236134	2
0	1311	449.527751023779	1
0	1316	449.666098288155	0
0	1322	450.490752247505	1
0	1326	451.572579064282	0
0	1361	463.421287957171	1
0	1362	464.449584660989	0
0	1384	473.480736677894	1
0	1385	474.127342588779	0
0	1394	476.547473414058	1
0	1395	477.245851049317	0
0	1407	478.642595496989	1
0	1412	479.907949499808	2
0	1417	483.451299510847	1
0	1423	485.953401983622	0
0	1458	491.707236108867	1
0	1459	491.756315484753	0
0	1468	494.149197353311	1
0	1470	494.97214458172	2
0	1472	495.529971811791	3
0	1474	495.908873634291	4
0	1477	496.459721876778	3
0	1482	496.755881770225	2
0	1487	497.545558615902	1
0	1493	498.292334917743	0
0	1504	499.245221761813	1
0	1511	503.435486912595	0
0	1519	505.506582927272	1
0	1523	509.816826270047	0
0	1532	514.535020279984	1
0	1533	515.000894502517	0
0	1540	515.276227734797	1
0	1542	515.701277395519	2
0	1544	516.365984668271	3
0	1545	518.827207246324	2
0	1551	519.18115149895	1
0	1557	520.168779368089	2
0	1560	522.330420903322	1
0	1568	526.32211698531	2
0	1571	526.685939923027	3
0	1572	528.304939551035	2
0	1578	530.047502288881	3
0	1580	530.148481482666	4
0	1581	531.721120487074	3
0	1586	532.245815139763	2
0	1591	532.648041268529	1
0	1597	535.011453517592	2
0	1600	536.906731839741	1
0	1604	537.050206396541	2
0	1606	537.080850024052	3
0	1608	540.368933903776	4
0	1613	543.778024308802	5
0	1615	544.009428966999	6
0	1617	545.517164779884	5
0	1630	547.073339550233	6
0	1631	547.659483607852	5
0	1637	549.408380858143	4
0	1642	550.226148996116	3
0	1652	552.258345325607	2
0	1658	553.670188729678	1
0	1663	553.82167379377	0
0	1714	570.014177342607	1
0	1717	571.688357704603	2
0	1718	572.096609750689	1
0	1725	573.354774641075	2
0	1727	575.548494441377	3
0	1730	576.199512552821	2
0	1737	578.150822707697	3
0	1740	578.721437102589	2
0	1745	578.793665084437	1
0	1751	579.249573977508	2
0	1752	579.314221913046	1
0	1758	579.473724014796	2
0	1761	581.329054722918	3
0	1762	581.565056199391	2
0	1771	583.755001406533	1
0	1777	583.816818733941	0
0	1796	586.45125627293	1
0	1798	588.03119731806	0
0	1819	595.625155366433	1
0	1823	597.572941331242	0
0	1837	603.201731049299	1
0	1839	604.53143439286	2
0	1840	605.473080905165	1
0	1847	609.094794565839	0
0	1865	612.119914955769	1
0	1867	612.22147162543	2
0	1868	612.31304641775	1
0	1875	613.346445458141	2
0	1877	613.860150175549	3
0	1878	613.874514180856	2
0	1884	614.645254915576	3
0	1889	615.84467157846	4
0	1891	615.871762578103	5
0	1895	617.10727306311	4
0	1901	618.217893631011	3
0	1908	618.569318779568	2
0	1914	618.593960495939	3
0	1916	621.456318632789	2
0	1923	623.712668786772	3
0	1928	626.96180455358	2
0	1937	628.376898675876	3
0	1938	629.130153224183	2
0	1946	630.693428051046	3
0	1948	630.747642905046	4
0	1952	636.165705299651	5
0	1956	638.534520197801	6
0	1957	640.839523190403	5
0	1962	640.856061488721	4
0	1969	643.936100801208	5
0	1970	645.67973806553	4
0	1983	650.575095983659	3
0	1989	650.842194935075	2
0	1994	651.47244933908	1
0	2002	653.325650170216	2
0	2008	655.908245607432	3
0	2009	658.841305517559	2
0	2014	659.335650302738	1
0	2020	660.30205743713	2
0	2024	662.151621228329	3
0	2029	664.958861189858	2
0	2034	665.212595802959	1
0	2040	668.905958157396	0
0	2068	674.696695452351	1
0	2070	681.096338464194	2
0	2073	687.653256168487	1
0	2078	687.793804469308	0
0	2125	705.453053927737	1
0	2128	709.336214485712	0
0	2134	710.681344721795	1
0	2135	711.770497005677	0
0	2145	714.156169666712	1
0	2148	714.669449811764	0
0	2163	719.900943104817	1
0	2164	721.064098033145	0
0	2175	724.287359429413	1
0	2177	729.886170659569	0
0	2183	730.948677979916	1
0	2184	731.552374244644	0
0	2196	733.521423738501	1
0	2198	733.616634243036	2
0	2200	734.283859193227	3
0	2203	736.845230775306	2
0	2211	742.210447917008	1
0	2217	742.815505001223	2
0	2219	744.318763168434	1
0	2225	744.820687364162	2
0	2229	747.776987085938	1
0	2234	747.955972950419	0
0	2244	755.444395940569	1
0	2245	755.692146351488	0
0	2257	757.89149795349	1
0	2259	760.193632225782	2
0	2260	760.755706690711	1
0	2267	761.775943245167	2
0	2268	762.557439810186	1
0	2275	766.645935696575	0
0	2306	775.18462593307	1
0	2308	777.377313897957	2
0	2309	777.924049356004	1
0	2318	780.998180327657	2
0	2320	785.976004772721	3
0	2322	786.248055323536	4
0	2323	787.667068897524	3
0	2330	788.39636067086	2
0	2339	793.127248968524	1
0	2347	795.987127006518	0
0	2353	796.167892870799	1
0	2358	799.770364483033	2
0	2359	800.402589366088	1
0	2366	803.024046195183	2
0	2368	803.604230899341	3
0	2370	803.62201299256	4
0	2373	805.046657732979	3
0	2381	807.143868913752	2
0	2388	810.326989525922	3
0	2390	811.370507628373	2
0	2395	811.747349520334	1
0	2404	815.821922701288	0
0	2410	816.084260912736	1
0	2411	817.200107107781	0
0	2425	818.891623196026	1
0	2429	820.793629768024	2
0	2433	821.586331859522	3
0	2435	822.201860804973	4
0	2436	822.458552129028	3
0	2443	827.269647326241	2
0	2449	827.587266460274	3
0	2451	827.636445038893	4
0	2455	829.93473600385	5
0	2457	830.202214193937	6
0	2460	832.320891806471	7
0	2461	832.406512997908	6
0	2466	833.162110843658	5
0	2472	836.711093071065	6
0	2473	836.820459750439	5
0	2478	837.126084712962	4
0	2488	841.168146454215	5
0	2489	844.855390636637	4
0	2493	844.927169497826	5
0	2495	846.024191164288	6
0	2498	847.133167057883	5
0	2503	849.673039763344	4
0	2510	852.415218914945	3
0	2517	854.72691784619	2
0	2522	855.038979395229	1
0	2527	855.460617951081	0
0	2545	859.216946832078	1
0	2548	860.321608592123	0
0	2552	864.016734456552	1
0	2554	864.483637339431	2
0	2556	864.983552007067	3
0	2562	867.820280867099	2
0	2567	868.267455973665	1
0	2571	868.856631570949	2
0	2573	872.873326603669	3
0	2578	874.139520655992	2
0	2582	875.123457369271	3
0	2586	883.529663631695	4
0	2588	884.002089830492	5
0	2593	885.2039662084	6
0	2594	885.906225577419	5
0	2602	887.914877930451	4
0	2608	890.786763558816	3
0	2614	890.812874675814	4
0	2616	891.09705742181	5
0	2617	891.245998057112	4
0	2621	892.137588434307	5
0	2623	892.735670899244	6
0	2628	894.015836558794	5
0	2632	894.283104833826	6
0	2636	894.942263938547	7
0	2638	895.062433151141	8
0	2640	895.690901411343	7
0	2646	896.338410458064	8
0	2651	899.826575906548	7
0	2657	900.944323075054	6
0	2663	901.641725561892	5
0	2670	903.027761928552	4
0	2675	903.33727582553	3
0	2681	903.36772928673	4
0	2682	904.012893024734	3
0	2689	905.420779309728	2
0	2696	910.075910660435	1
0	2704	911.458670543698	0
0	2747	928.990308741136	1
0	2750	929.875728739034	0
0	2761	930.773103433807	1
0	2763	931.03558553196	2
0	2765	932.22872765677	1
0	2779	952.758063611311	0
0	2787	953.484419950664	1
0	2788	953.981980045064	0
0	2800	954.979538917542	1
0	2801	955.530389253587	0
0	2820	962.627579381741	1
0	2824	964.146505155117	2
0	2827	964.653197388518	1
0	2833	964.722301688245	2
0	2837	969.502968914061	3
0	2843	975.302439731138	4
0	2845	975.63439006348	5
0	2850	979.405320445262	4
0	2855	980.450363434472	3
0	2860	980.99200531261	2
0	2867	982.560202233817	1
0	2872	983.027060995802	0
0	2904	994.200253201625	1
0	2909	997.15856476356	0
0	2924	998.723989582817	1
0	2925	998.734024723326	0
0	2938	1006.061116707086	1
0	2942	1007.276184101381	2
0	2944	1008.163868155953	3
0	2945	1008.733808034721	2
0	2954	1010.71506582872	3
0	2955	1013.485171503925	2
0	2961	1014.528682746787	3
0	2962	1014.598288947765	2
0	2968	1016.257072587213	1
0	2973	1016.478721412485	0
0	2980	1016.873272359055	1
0	2989	1022.895360037078	2
0	2991	1023.23156331654	3
0	2992	1024.098329614368	2
0	2997	1024.139118736448	1
0	3003	1024.42168547523	2
0	3006	1026.171359668555	1
0	3016	1028.936701524237	0
0	3022	1029.257661472904	1
0	3024	1029.673667646721	0
0	3033	1032.656063804951	1
0	3037	1042.16651797874	2
0	3038	1043.675835139373	1
0	3043	1044.231681226133	0
0	3050	1045.270919850248	1
0	3051	1045.583173644522	0
0	3076	1052.667386000561	1
0	3077	1053.874181733804	0
0	3093	1059.169010832556	1
0	3094	1059.687288521913	0
0	3123	1067.417315233551	1
0	3125	1067.969910036419	2
0	3129	1068.483525483332	3
0	3130	1068.964293703989	2
0	3138	1070.346226637121	1
0	3143	1070.961279285805	0
0	3163	1077.421743194871	1
0	3167	1079.468799343531	2
0	3168	1079.995948386697	1
0	3174	1082.239297442847	2
0	3176	1082.733784039998	1
0	3182	1082.915262373174	2
0	3183	1082.945993353232	1
0	3188	1084.404097717575	0
0	3211	1091.114322513482	1
0	3213	1091.57600314706	0
0	3230	1096.91078773422	1
0	3241	1101.648198525315	0
0	3250	1104.343568881557	1
0	3251	1104.730095019439	0
0	3260	1105.935165449862	1
0	3262	1106.364362182081	2
0	3270	1113.58684046781	1
0	3276	1114.97059038616	0
0	3284	1118.788538066385	1
0	3286	1120.050498881883	2
0	3288	1124.011701541918	1
0	3296	1126.493983068451	2
0	3297	1126.530669186125	1
0	3302	1126.759189892286	0
0	3312	1130.117989849751	1
0	3313	1131.491931457483	0
0	3331	1138.549675041829	1
0	3332	1139.379300658362	0
0	3350	1145.570864778024	1
0	3352	1147.054448374933	2
0	3353	1147.351101925958	1
0	3359	1147.728886755523	2
0	3361	1150.841294535426	3
0	3362	1151.300730547135	2
0	3369	1151.8043632739	1
0	3374	1153.148859043231	0
0	3382	1155.686024538554	1
0	3383	1155.722210683769	0
0	3404	1163.025044770077	1
0	3407	1165.239716227356	0
0	3418	1167.163802978991	1
0	3422	1168.491418139254	0
0	3434	1169.797373969293	1
0	3436	1171.30485876761	2
0	3437	1173.444648057827	1
0	3445	1173.790285460644	2
0	3449	1175.158180396088	3
0	3451	1176.550855745583	4
0	3455	1178.039829985022	5
0	3457	1178.062219385784	6
0	3459	1182.574415780576	7
0	3462	1183.722366609559	6
0	3467	1184.189799020938	5
0	3473	1184.295409310719	6
0	3477	1186.405638683402	7
0	3478	1189.011553821798	6
0	3485	1190.293522339814	7
0	3486	1191.243090598605	6
0	3492	1192.105854809458	7
0	3494	1192.730585312848	8
0	3500	1194.010691063398	9
0	3501	1194.572747901778	8
0	3507	1194.60375914815	9
0	3508	1196.898327999637	8
0	3517	1202.142555241318	7
0	3525	1206.308444476464	6
0	3530	1206.41267141234	5
0	3536	1206.473848879564	6
0	3542	1212.923946641306	5
0	3551	1214.001965600563	4
0	3557	1214.096573245149	3
0	3564	1216.809509494422	2
0	3573	1218.517450154609	3
0	3576	1221.886406433904	2
0	3584	1223.036036950441	1
0	3590	1226.373879689183	2
0	3592	1226.643798633079	3
0	3593	1227.452238627174	2
0	3599	1228.136098988966	1
0	3605	1229.985810981502	2
0	3608	1231.130510703551	1
0	3615	1233.429687921648	0
0	3664	1250.98552825194	1
0	3666	1252.751715056728	2
0	3670	1256.0453814921	3
0	3671	1256.148778036689	2
0	3677	1256.646781902655	1
0	3683	1256.707952876284	2
0	3693	1259.287805738298	1
0	3698	1260.99172709458	0
0	3705	1262.116480050219	1
0	3707	1262.479932055272	0
0	3736	1264.553740460275	1
0	3738	1265.373387286363	2
0	3745	1268.370054238053	1
0	3752	1270.068999260983	2
0	3755	1271.631155981771	3
0	3756	1272.279047846154	2
0	3762	1274.67802839181	3
0	3763	1274.952761671945	2
0	3768	1275.010081000655	1
0	3775	1276.893695469712	0
0	3787	1283.098407021999	1
0	3789	1283.72182908765	2
0	3791	1284.43525836663	3
0	3797	1291.352047612504	4
0	3798	1291.48225714646	3
0	3803	1292.592566453491	2
0	3809	1294.716901356681	1
0	3815	1295.16646476521	2
0	3817	1296.116347313646	3
0	3824	1300.674847714852	2
0	3830	1302.975406379001	1
0	3838	1305.010190565671	0
0	3852	1308.728170429771	1
0	3853	1311.138414226748	0
0	3874	1315.572607628444	1
0	3876	1317.87340145766	2
0	3879	1319.111577433729	1
0	3887	1320.876325949087	0
0	3901	1330.145649455678	1
0	3903	1330.559417994377	2
0	3904	1331.935633781736	1
0	3909	1333.986779051839	0
0	3921	1335.320339077678	1
0	3923	1335.527537213185	2
0	3926	1335.696768133947	3
0	3928	1335.766937909145	4
0	3930	1337.801759306265	3
0	3936	1337.921420323753	4
0	3942	1338.492243331765	5
0	3945	1341.236849754393	4
0	3952	1342.71830172073	5
0	3953	1344.619254803813	4
0	3962	1347.350829470569	3
0	3968	1347.38354779704	4
0	3970	1347.398351093834	5
0	3972	1350.2920808956	4
0	3978	1351.248084366683	3
0	3983	1353.41479612948	2
0	3992	1356.082699520014	3
0	3993	1363.596164519919	2
0	3998	1364.055910628759	1
0	4003	1364.541874885009	0
0	4023	1367.535296534186	1
0	4024	1367.563169742695	0
0	4030	1367.802105185341	1
0	4031	1368.568332016428	0
0	4039	1372.630007785375	1
0	4041	1375.322487164521	0
0	4048	1376.794253808078	1
0	4050	1379.145624973577	2
0	4051	1379.826129126098	1
0	4057	1382.732590525199	0
0	4074	1387.631381447684	1
0	4077	1390.088268719705	0
0	4096	1395.678200921875	1
0	4098	1396.905870068092	2
0	4100	1398.698172815005	3
0	4101	1398.917079083121	2
0	4110	1402.012488657048	1
0	4115	1402.509669072895	0
0	4156	1418.995735975748	1
0	4159	1419.562093939348	0
0	4171	1421.052448555513	1
0	4173	1422.682238578778	2
0	4177	1423.569627195394	1
0	4182	1423.636078718127	0
0	4198	1427.323906366299	1
0	4199	1427.53231502313	0
0	4208	1433.816615257234	1
0	4210	1435.331106072782	2
0	4213	1436.578386872241	1
0	4219	1436.852013657825	2
0	4225	1438.737600230511	1
0	4231	1439.829185389495	0
0	4240	1446.106939867252	1
0	4242	1446.658894147681	2
0	4246	1451.027643968155	3
0	4248	1452.764822756462	4
0	4249	1454.031515376515	3
0	4255	1455.116853754686	4
0	4257	1456.067990919648	3
0	4262	1457.963067088882	2
0	4267	1459.061036327952	1
0	4275	1467.381199912494	0
0	4296	1470.486990775909	1
0	4297	1472.686146858179	0
0	4305	1477.210359799851	1
0	4306	1478.048466997511	0
0	4313	1480.477644775774	1
0	4316	1484.104288372977	0
0	4334	1492.188728763191	1
0	4335	1493.814432442034	0
0	4346	1494.637127473644	1
0	4347	1495.888988542961	0
0	4383	1502.277532705266	1
0	4391	1506.47492757188	2
0	4392	1508.238014211393	1
0	4401	1510.123417130907	0
0	4411	1516.118564215666	1
0	4413	1516.523303207157	2
0	4417	1518.508443971355	1
0	4425	1518.705272142618	2
0	4427	1519.583873913477	1
0	4432	1520.01105890478	0
0	4438	1520.582396891837	1
0	4439	1520.596375463926	0
0	4445	1520.891823397921	1
0	4446	1520.998645310632	0
0	4450	1521.171307426219	1
0	4452	1521.78917186268	2
0	4456	1523.691765182318	3
0	4463	1526.130574319423	2
0	4469	1528.528490433114	3
0	4470	1528.634339817041	2
0	4474	1531.100583015909	3
0	4478	1532.174356327962	4
0	4479	1532.323452339023	3
0	4485	1535.02435887312	4
0	4487	1535.6670299287	5
0	4493	1540.764554396494	4
0	4498	1542.030569091618	3
0	4509	1543.076185103366	4
0	4511	1543.575434415731	3
0	4519	1546.623581193699	4
0	4521	1546.747923448598	5
0	4525	1550.062690995005	4
0	4530	1551.033558168825	3
0	4537	1551.658418250341	4
0	4539	1552.539608783218	3
0	4544	1552.689655046222	2
0	4550	1553.111175943448	3
0	4552	1553.853613589463	4
0	4554	1554.816153371598	3
0	4561	1556.675378273931	4
0	4563	1558.680256850246	3
0	4569	1559.847491874638	4
0	4574	1560.821850000721	5
0	4576	1562.571902986572	6
0	4577	1564.226559065213	5
0	4582	1564.781935259282	4
0	4587	1566.831919150773	3
0	4593	1567.471000722522	4
0	4594	1569.222604395197	3
0	4599	1570.142843089795	2
0	4608	1572.211781598954	3
0	4611	1572.896718633946	2
0	4616	1574.367210374624	1
0	4620	1576.034422364653	2
0	4629	1581.848419566167	1
0	4634	1581.944661016793	0
0	4650	1585.942721299755	1
0	4651	1586.879928892219	0
0	4693	1594.811317576311	1
0	4695	1595.646837751022	2
0	4702	1600.55596804326	1
0	4710	1603.787248781356	0
0	4719	1608.949855070091	1
0	4723	1611.539702253769	0
0	4754	1622.735031845556	1
0	4755	1623.320065977516	0
0	4762	1623.830003798726	1
0	4763	1624.376346604804	0
0	4769	1627.78902566224	1
0	4770	1628.117792149935	0
0	4798	1632.667028850587	1
0	4800	1633.351178439568	2
0	4802	1633.741135478646	3
0	4803	1634.781160741579	2
0	4812	1639.192214815959	3
0	4814	1639.780138056578	4
0	4815	1640.719254465503	3
0	4820	1640.888115467904	2
0	4825	1641.387340221314	1
0	4833	1643.4772152813	0
0	4842	1644.918350818974	1
0	4843	1646.42767750289	0
0	4862	1649.033300344239	1
0	4864	1649.255035097117	2
0	4866	1649.327914365455	3
0	4871	1651.006864874642	2
0	4876	1653.235848015344	1
0	4880	1655.021936982805	2
0	4882	1655.069124462272	3
0	4884	1656.042443886688	4
0	4887	1658.4351551686	3
0	4892	1662.477500452078	2
0	4900	1665.831342225076	1
0	4906	1666.098222310404	2
0	4908	1666.985950231917	1
0	4913	1667.779868593183	0
0	4947	1678.658158307464	1
0	4948	1680.492648418708	0
0	4970	1691.063190474831	1
0	4974	1693.567297471264	2
0	4975	1694.291451478845	1
0	4981	1694.304202464216	0
0	4998	1700.091578436535	1
0	5000	1702.799988078929	0
0	5011	1705.034211287264	1
0	5013	1706.952397574557	0
0	5029	1708.858742943939	1
0	5031	1709.954910987682	0
0	5045	1717.11937322389	1
0	5051	1722.374328118031	2
0	5055	1725.084776655729	3
0	5056	1726.580994023036	2
0	5061	1726.861198046546	1
0	5066	1727.484663151606	0
0	5072	1728.445058101705	1
0	5075	1731.367616857381	2
0	5076	1733.300930747297	1
0	5083	1736.888833631551	0
0	5092	1738.985172146938	1
0	5093	1739.276751273801	0
0	5115	1744.074221734976	1
0	5119	1750.394814154259	0
0	5134	1752.202834655448	1
0	5136	1753.684756410393	2
0	5140	1758.113907085659	1
0	5148	1760.090347448057	0
0	5192	1784.140171964354	1
0	5193	1784.519677659818	0
0	5200	1786.775669167045	1
0	5202	1788.040684514803	2
0	5203	1789.053756953708	1
0	5208	1789.620272789928	0
0	5230	1799.268058713128	1
0	5233	1800.342932860452	0
0	5243	1801.192252648015	1
0	5248	1806.815512650944	0
0	5258	1813.270335296467	1
0	5259	1815.310465717622	0
0	5266	1816.435774371805	1
0	5269	1821.506107908539	0
0	5287	1825.879861976395	1
0	5288	1829.752854369252	0
0	5296	1831.33161636715	1
0	5300	1832.607394760947	0
0	5312	1834.73467806521	1
0	5314	1834.856757646578	2
0	5315	1838.274003810496	1
0	5321	1838.918208762296	0
0	5335	1839.520481094401	1
0	5338	1841.035714774022	0
0	5359	1845.079441475955	1
0	5361	1845.267236624793	2
0	5362	1845.389119757154	1
0	5369	1846.486806690369	2
0	5378	1851.583272874513	3
0	5379	1852.205512467796	2
0	5385	1852.86606099971	3
0	5387	1853.646907140386	4
0	5388	1854.222670022095	3
0	5394	1855.436214726382	2
0	5400	1855.920126720402	1
0	5405	1856.722245033924	0
0	5427	1862.590717522917	1
0	5428	1863.28272094576	0
0	5434	1863.663047885811	1
0	5437	1865.679854951749	2
0	5441	1868.070261010552	3
0	5443	1868.45965014988	4
0	5444	1870.135270579881	3
0	5454	1873.30274413237	2
0	5460	1875.73212963293	1
0	5467	1876.922042803974	2
0	5468	1878.024671653061	1
0	5475	1880.22396956856	0
0	5481	1881.169349686071	1
0	5484	1884.56016594523	2
0	5487	1885.803238873409	1
0	5492	1886.040407837206	0
0	5498	1886.187339465516	1
0	5500	1886.523862997754	2
0	5502	1887.005391969069	1
0	5509	1890.80065739116	0
0	5526	1894.718437460841	1
0	5531	1902.177151245915	0
0	5537	1902.423961460864	1
0	5541	1906.25490259254	2
0	5545	1913.009884672507	1
0	5551	1914.888574245117	0
0	5577	1921.953491866577	1
0	5579	1923.471072983244	2
0	5581	1923.766347140675	3
0	5584	1924.487948032044	2
0	5590	1927.544883247407	1
0	5597	1928.989015990548	0
0	5603	1930.143155296508	1
0	5608	1939.71816916201	0
0	5620	1941.445713791434	1
0	5625	1942.94106196965	0
0	5631	1943.424612670912	1
0	5633	1946.890885447691	0
0	5667	1963.680922637376	1
0	5671	1964.628990339432	2
0	5672	1965.850037172683	1
0	5678	1967.980700063439	0
0	5707	1977.83853234735	1
0	5708	1981.025936877016	0
0	5714	1982.223996866127	1
0	5717	1982.736233461811	2
0	5719	1986.451243153773	3
0	5720	1987.236668983695	2
0	5731	1988.693772957103	3
0	5732	1988.955058372922	2
0	5737	1989.07298915255	1
0	5744	1992.389899186131	0
0	5753	1992.975210863734	1
0	5759	1996.13971363432	2
0	5761	1997.085859645074	1
0	5766	1997.237595844405	0
0	5772	1997.495767164905	1
0	5773	1999.533977303377	0
0	5781	2000.155366408984	1
0	5783	2001.819757214179	0
0	5801	2008.870400695116	1
0	5805	2010.395074125682	0
0	5811	2011.021950472385	1
0	5815	2012.886087443583	2
0	5816	2014.305413796231	1
0	5822	2015.040654709526	2
0	5826	2017.250073538755	1
0	5832	2017.677008183823	2
0	5836	2020.140863730526	3
0	5840	2021.715888800427	4
0	5841	2025.599234056042	3
0	5847	2027.383442293892	2
0	5852	2029.164005354773	1
0	5858	2030.026301146968	0
0	5866	2031.701658611118	1
0	5870	2033.276192719437	2
0	5871	2033.771246104643	1
0	5877	2036.802381950873	0
0	5885	2038.713544803738	1
0	5886	2039.223112086965	0
0	5894	2039.656148771714	1
0	5896	2040.430638122805	2
0	5898	2041.637483101401	3
0	5899	2042.604560564351	2
0	5905	2043.2896386552	3
0	5908	2045.403084612175	2
0	5915	2046.807243088781	3
0	5916	2047.697030509373	2
0	5922	2050.183406430787	1
0	5929	2051.417451185248	0
0	5969	2064.950794411057	1
0	5972	2069.000566421822	0
0	5984	2073.16461664244	1
0	5987	2074.39041316078	0
0	5995	2074.835580014113	1
0	5997	2075.035638831077	0
0	6010	2081.396253725038	1
0	6012	2084.354800027695	2
0	6013	2084.488461086385	1
0	6018	2084.712144352573	0
0	6027	2085.513823394942	1
0	6031	2086.684381346694	2
0	6037	2089.737694604722	3
0	6038	2090.63957233217	2
0	6044	2091.510550602704	3
0	6045	2093.050947746325	2
0	6050	2093.284866991056	1
0	6055	2094.082784078712	0
0	6074	2101.51594224069	1
0	6077	2104.854479435065	2
0	6079	2106.199294668087	3
0	6080	2107.53593126047	2
0	6087	2108.907445742912	3
0	6088	2110.113300388524	2
0	6093	2110.521606278338	1
0	6098	2110.803217618074	0
0	6120	2117.219604243717	1
0	6121	2118.361168870601	0
0	6129	2119.499970291272	1
0	6131	2119.513150107622	2
0	6133	2119.6709282248	3
0	6139	2121.157564668163	2
0	6145	2122.215435432295	3
0	6147	2125.098954643965	2
0	6154	2125.454166848354	1
0	6161	2125.785075637439	0
0	6167	2126.210156321364	1
0	6169	2129.526988409131	2
0	6170	2130.145839953368	1
0	6175	2130.233048409792	0
0	6203	2137.158303256982	1
0	6206	2138.079108208337	0
0	6222	2141.023928993587	1
0	6223	2141.184429551643	0
0	6241	2145.301005224338	1
0	6243	2147.276212132155	2
0	6247	2148.538032040957	3
0	6250	2149.931603647099	2
0	6263	2154.688087846029	3
0	6264	2155.307539544977	2
0	6270	2155.714468988112	3
0	6275	2156.27169120608	4
0	6279	2157.441732602398	5
0	6280	2158.348756684322	4
0	6288	2161.310801511687	5
0	6290	2162.394604733338	6
0	6292	2163.575397215123	5
0	6299	2164.588668081059	4
0	6309	2166.589197690318	3
0	6319	2168.527111248892	2
0	6325	2169.810661867561	3
0	6327	2170.219136048897	4
0	6329	2170.522628413245	5
0	6330	2170.856172388055	4
0	6335	2171.090484551466	3
0	6345	2175.807335279387	2
0	6352	2176.500241488227	3
0	6354	2177.930966686413	4
0	6356	2179.262882756233	3
0	6363	2183.547538426535	2
0	6369	2184.20988694887	3
0	6372	2184.722661474862	2
0	6380	2188.413977545055	1
0	6386	2189.216197707557	0
0	6398	2191.195235951572	1
0	6400	2191.537390632817	2
0	6402	2192.851918106736	3
0	6406	2194.494930056241	4
0	6408	2196.002485796801	5
0	6410	2196.932830937463	6
0	6412	2201.221857318978	7
0	6414	2201.980380530466	8
0	6415	2202.197837967965	7
0	6421	2204.0120998857	6
0	6428	2205.526626429684	7
0	6430	2211.766593634515	6
0	6436	2211.8933974149	7
0	6437	2212.061463909138	6
0	6442	2212.087271646963	5
0	6448	2212.964713972863	4
0	6454	2213.224764021669	3
0	6459	2213.730692630175	2
0	6464	2215.510223713913	1
0	6469	2219.852633015841	0
0	6481	2222.160924284345	1
0	6482	2222.397824889413	0
0	6495	2224.6485876535	1
0	6498	2226.555636399789	0
0	6505	2228.071958282211	1
0	6508	2231.830690296091	0
0	6514	2232.682712475915	1
0	6516	2233.185725025448	2
0	6518	2234.70591174207	1
0	6525	2236.126991395597	2
0	6526	2239.843602950412	1
0	6534	2242.859598174935	0
0	6543	2244.990649578898	1
0	6544	2245.125371299676	0
0	6562	2247.216237161165	1
0	6563	2247.285761660602	0
0	6585	2254.144418951557	1
0	6587	2255.685949298644	2
0	6588	2258.328415523239	1
0	6594	2260.335864069864	0
0	6605	2267.943575935556	1
0	6607	2268.779091914401	2
0	6610	2269.325796698546	1
0	6616	2270.005384860251	2
0	6617	2271.209869265202	1
0	6622	2271.508781465859	0
0	6641	2281.991543497575	1
0	6646	2283.464080307407	0
0	6652	2283.664599682167	1
0	6655	2285.192814135463	2
0	6656	2287.28741406273	1
0	6662	2289.751737543707	2
0	6663	2290.627238337191	1
0	6669	2292.002451990136	2
0	6670	2292.4914857224	1
0	6680	2296.135277173968	0
0	6691	2298.794675230451	1
0	6693	2299.728855667718	2
0	6699	2305.834158253698	3
0	6700	2307.928410397023	2
0	6706	2308.032700625747	3
0	6708	2308.365408216497	4
0	6709	2310.205717487622	3
0	6718	2311.538764388073	2
0	6723	2311.562832830294	1
0	6729	2314.861911109017	2
0	6733	2317.740468183992	3
0	6740	2319.055813325991	4
0	6748	2323.20775718182	5
0	6749	2323.278824490711	4
0	6758	2325.74510984386	5
0	6759	2328.295596656505	4
0	6766	2329.214840861364	5
0	6769	2329.832372882186	6
0	6770	2331.642366523838	5
0	6775	2332.012257701222	4
0	6781	2332.115341413021	5
0	6785	2334.279122959294	4
0	6790	2334.337447975324	3
0	6796	2339.152177704188	2
0	6804	2340.809236778487	3
0	6807	2341.914271646379	4
0	6809	2342.270252435945	5
0	6810	2343.968216268477	4
0	6816	2345.726265582749	5
0	6821	2350.60261196577	6
0	6824	2354.949636702632	5
0	6835	2359.892646840201	4
0	6840	2360.003451025552	3
0	6846	2360.72762638793	4
0	6847	2360.80417379376	3
0	6854	2361.601450332417	4
0	6855	2362.727793666982	3
0	6860	2362.878722676399	2
0	6864	2363.950327977627	3
0	6868	2370.129534672953	2
0	6876	2373.134948760291	3
0	6877	2373.136329301286	2
0	6888	2382.05317407929	3
0	6891	2385.657761214845	2
0	6899	2388.937215571623	1
0	6904	2389.179665832245	0
0	6931	2392.818042085505	1
0	6932	2393.055900539075	0
0	6945	2396.867343369799	1
0	6947	2397.690003015914	2
0	6948	2398.695293528031	1
0	6955	2403.267812181457	0
0	6995	2413.279789861029	1
0	7003	2417.948910370384	2
0	7005	2418.181717638691	3
0	7006	2418.270553840578	2
0	7011	2418.299405404686	1
0	7016	2418.318530988224	0
0	7031	2419.337168879526	1
0	7033	2419.614934544512	0
0	7040	2420.831476925148	1
0	7041	2421.680199535846	0
0	7070	2426.387730666518	1
0	7073	2429.286547045746	2
0	7075	2429.45479077588	3
0	7076	2431.619743531679	2
0	7081	2432.220287285054	1
0	7087	2433.224988279614	0
0	7104	2438.245882228306	1
0	7106	2439.595768762184	2
0	7108	2439.970870100845	3
0	7112	2440.8165543946	4
0	7114	2441.83674160963	3
0	7121	2442.891186790864	2
0	7127	2443.309771458246	3
0	7129	2444.484859135079	4
0	7131	2446.574063879471	3
0	7137	2446.588966271461	4
0	7140	2451.120485537644	3
0	7147	2452.045981145223	2
0	7151	2454.01687892985	3
0	7153	2454.963536533008	4
0	7156	2455.315215409973	3
0	7161	2460.241313194423	2
0	7169	2462.034738034951	3
0	7170	2462.81417546223	2
0	7174	2463.057526163809	3
0	7179	2464.770117629479	4
0	7183	2465.894104204144	3
0	7188	2465.967662119271	2
0	7193	2470.089190675971	1
0	7199	2475.671586789455	2
0	7202	2476.433115351955	3
0	7204	2478.802010250006	4
0	7206	2480.958426065202	3
0	7212	2480.958482353561	4
0	7215	2482.842976640666	3
0	7223	2483.445404408665	4
0	7225	2483.716629603066	5
0	7232	2487.685937765004	6
0	7236	2488.861023782702	7
0	7238	2492.773840530587	8
0	7239	2494.13354433955	7
0	7244	2494.157291434626	6
0	7249	2494.730457245208	5
0	7254	2494.748256905433	4
0	7261	2496.216353064213	5
0	7265	2497.711382963431	4
0	7271	2499.171630589002	5
0	7277	2501.582856287944	6
0	7281	2501.878727198355	7
0	7283	2503.866577848709	8
0	7284	2505.000230094372	7
0	7290	2506.369085162429	6
0	7296	2510.530684028455	5
0	7302	2512.406065158903	6
0	7305	2513.408219899255	7
0	7306	2515.171972023609	6
0	7316	2523.781048818482	5
0	7324	2526.109212822677	4
0	7329	2526.286236693708	3
0	7334	2526.351808932553	2
0	7341	2527.981355242056	1
0	7347	2528.597610518622	0
0	7373	2534.485767088744	1
0	7379	2536.19633296093	2
0	7381	2537.239377790358	3
0	7382	2537.701622578434	2
0	7391	2538.91941084803	3
0	7393	2539.402637749244	4
0	7394	2540.183543142717	3
0	7402	2543.087115843154	2
0	7408	2543.663824222015	3
0	7414	2550.489612208402	2
0	7421	2553.956567939762	1
0	7427	2555.848087906212	2
0	7428	2556.583171216876	1
0	7433	2556.831501885081	0
0	7452	2560.527365973939	1
0	7453	2560.570893728466	0
0	7477	2565.258905372589	1
0	7481	2565.676300443836	2
0	7482	2565.680246657822	1
0	7487	2566.155542171462	0
0	7529	2575.45004068995	1
0	7531	2578.737993207645	2
0	7536	2581.71376787019	1
0	7543	2582.142760479585	2
0	7547	2584.503617504662	1
0	7552	2587.200240795146	0
0	7560	2588.667594152484	1
0	7563	2589.33314710748	0
0	7569	2589.431533915585	1
0	7570	2589.844755340331	0
0	7607	2609.405822565984	1
0	7609	2609.423681169383	2
0	7611	2609.756543599239	3
0	7615	2611.956118247846	2
0	7620	2612.584263964238	1
0	7625	2612.616105017557	0
0	7638	2616.90784148551	1
0	7640	2617.343755360958	2
0	7641	2617.637813967689	1
0	7647	2621.096035722282	0
0	7661	2624.628100168238	1
0	7668	2626.748264784636	2
0	7670	2627.169090641069	3
0	7671	2627.541246953156	2
0	7678	2628.356111522055	3
0	7679	2628.378969878817	2
0	7684	2628.587965685602	1
0	7688	2628.970252083842	2
0	7708	2637.88915870349	1
0	7714	2638.337782509901	2
0	7715	2638.522626923942	1
0	7721	2638.565112287554	2
0	7725	2639.019463847241	1
0	7736	2642.532676255358	2
0	7738	2646.235972124147	1
0	7744	2647.055082166795	2
0	7747	2647.43508636925	3
0	7749	2648.064785211908	4
0	7750	2651.294275662472	3
0	7758	2655.540280333198	2
0	7763	2655.986112033269	1
0	7771	2661.837705423947	2
0	7773	2662.760777462247	3
0	7774	2666.010489386834	2
0	7780	2666.291949135115	3
0	7781	2666.403892035382	2
0	7789	2668.381782651511	1
0	7795	2670.129931328047	0
0	7809	2672.338809575489	1
0	7814	2673.177898880825	0
0	7826	2676.714325778765	1
0	7828	2679.383090864053	2
0	7829	2680.615585818002	1
0	7837	2682.801511783642	0
0	7858	2691.918794656879	1
0	7859	2693.924530434372	0
0	7868	2695.128290398056	1
0	7875	2697.094286924986	2
0	7876	2697.607972746125	1
0	7882	2698.037739727685	0
0	7888	2698.591502284997	1
0	7890	2699.892189116807	0
0	7896	2700.035452336338	1
0	7900	2702.263430670547	0
0	7910	2703.345737339963	1
0	7913	2704.471167418024	0
0	7929	2709.088135655352	1
0	7931	2710.279488024525	0
0	7937	2710.321230278544	1
0	7940	2711.525983605115	2
0	7943	2714.664330539468	1
0	7950	2717.2339053703	2
0	7951	2718.049420785235	1
0	7957	2720.339485303918	0
0	7980	2725.058221248597	1
0	7983	2727.738054845508	0
0	8015	2741.577147295717	1
0	8017	2742.441736072542	2
0	8018	2744.108392448528	1
0	8025	2744.810714114196	2
0	8029	2749.368978630666	3
0	8031	2749.762593885894	4
0	8032	2750.765866360607	3
0	8037	2750.948742547279	2
0	8045	2753.781616643818	3
0	8048	2755.581927814843	2
0	8053	2755.587569621715	1
0	8059	2756.141595127649	0
0	8066	2756.571189362379	1
0	8069	2759.078857535513	2
0	8071	2759.839340199857	3
0	8072	2760.446825883934	2
0	8081	2763.055057279624	3
0	8084	2767.224592433128	2
0	8090	2768.011490357123	1
0	8095	2768.562652784983	0
0	8101	2770.110277504653	1
0	8103	2771.426352984733	2
0	8104	2771.727574111368	1
0	8109	2772.502454120276	0
0	8115	2773.938210791304	1
0	8117	2774.058959832815	2
0	8118	2774.462867933278	1
0	8124	2776.664143925979	0
0	8134	2778.374970938798	1
0	8136	2779.524311302084	2
0	8142	2781.701881836372	3
0	8145	2782.645782144928	4
0	8146	2783.550835080421	3
0	8152	2785.554605393726	2
0	8157	2785.934800325103	1
0	8163	2786.499516130672	2
0	8169	2791.156548988515	1
0	8174	2791.949444033868	0
0	8195	2795.199153019514	1
0	8196	2795.200364799426	0
0	8214	2797.361646027313	1
0	8215	2798.178426851115	0
0	8239	2804.969549117274	1
0	8246	2813.192544805763	2
0	8249	2824.622541001248	1
0	8257	2827.824466259434	2
0	8259	2828.977257083724	3
0	8261	2829.310725201215	4
0	8262	2829.368033889986	3
0	8267	2829.759708936884	2
0	8272	2830.881179325794	1
0	8279	2832.01535094397	0
0	8294	2833.033603403839	1
0	8295	2835.117361618327	0
0	8302	2837.947874455861	1
0	8303	2838.428024002918	0
0	8309	2841.429995659597	1
0	8310	2842.517235441415	0
0	8317	2843.734235300319	1
0	8320	2845.34877603418	2
0	8322	2846.257902259622	1
0	8328	2847.993177302953	0
0	8334	2848.418639390746	1
0	8336	2850.938939481427	0
0	8362	2855.332796745514	1
0	8367	2858.67343263398	0
0	8378	2861.550928082913	1
0	8380	2861.702032540503	2
0	8383	2861.911801960447	3
0	8384	2862.100408004357	2
0	8389	2863.100580095046	1
0	8396	2864.845841145108	2
0	8397	2865.311119163754	1
0	8403	2865.908531920342	2
0	8406	2868.069915909678	1
0	8413	2871.879522566047	0
0	8421	2874.939578742288	1
0	8422	2877.594669737276	0
0	8443	2886.053186624446	1
0	8444	2888.04351190911	0
0	8452	2888.889630725986	1
0	8454	2890.092186335273	0
0	8461	2892.003417612349	1
0	8462	2892.397432240151	0
0	8473	2894.4605341376	1
0	8474	2895.480040750797	0
0	8487	2897.85463512944	1
0	8489	2898.109950804041	2
0	8490	2898.221545577154	1
0	8496	2899.625570058405	2
0	8499	2900.274028811868	3
0	8501	2902.015684665337	4
0	8503	2902.068224545724	5
0	8504	2902.319168198386	4
0	8513	2904.599077134817	3
0	8519	2908.023458611643	2
0	8526	2909.020972281775	1
0	8538	2912.317941570934	2
0	8540	2912.372461708956	3
0	8543	2917.491056779911	2
0	8548	2917.522831384835	1
0	8554	2918.572222277011	0
0	8566	2925.179611084782	1
0	8567	2925.634288395915	0
0	8586	2930.455026823225	1
0	8587	2931.090850682383	0
0	8593	2931.925469947206	1
0	8594	2932.066896625183	0
0	8618	2941.879173282813	1
0	8621	2945.082959341624	0
0	8627	2945.15134948372	1
0	8630	2946.850368285601	0
0	8639	2948.63115635693	1
0	8643	2950.726087175521	2
0	8653	2956.616254388608	3
0	8657	2960.492328889548	4
0	8658	2962.040746252024	3
0	8663	2962.320188307442	2
0	8669	2962.378926563646	1
0	8677	2964.131167779306	2
0	8681	2965.315519453892	3
0	8683	2966.572024785011	4
0	8685	2967.223084684263	5
0	8688	2969.690968938184	4
0	8694	2970.247609298888	3
0	8699	2970.339221170616	2
0	8705	2970.949351790244	1
0	8712	2971.367281454826	2
0	8714	2972.135203893777	1
0	8721	2974.429291633035	0
0	8739	2978.292235484637	1
0	8740	2986.394367201044	0
0	8754	2991.906262343332	1
0	8756	2992.348943877444	2
0	8757	2993.614351582867	1
0	8764	2993.688943293485	2
0	8765	2999.129154234144	1
0	8770	3000.045052460419	0
0	8783	3001.333138424486	1
0	8784	3004.699477144919	0
0	8790	3005.864880544213	1
0	8794	3009.948426361816	2
0	8795	3010.550173241567	1
0	8801	3010.72576476183	0
0	8815	3011.938647328432	1
0	8819	3012.347380312676	0
0	8836	3018.000737155158	1
0	8838	3018.842272664982	2
0	8840	3020.108175354506	3
0	8841	3021.389463078924	2
0	8846	3022.582360415653	1
0	8853	3022.930530176624	0
0	8861	3023.775447427713	1
0	8862	3023.9549605768	0
0	8879	3028.843764521928	1
0	8887	3030.582246684166	2
0	8890	3033.572411645329	1
0	8896	3034.13364080548	0
0	8903	3035.502134242347	1
0	8908	3036.961268309419	0
0	8921	3039.675037492588	1
0	8922	3040.194411415782	0
0	8942	3048.253450232829	1
0	8946	3053.896263632945	2
0	8949	3056.441979079536	1
0	8954	3056.64461825661	0
0	8961	3057.161850755511	1
0	8962	3057.40475473285	0
0	8973	3063.566168300842	1
0	8978	3067.213954586355	0
0	8984	3068.194623962502	1
0	8988	3071.732077571308	0
0	9008	3081.838601506089	1
0	9011	3087.85390746477	0
0	9021	3090.817075191603	1
0	9023	3095.797641582657	0
0	9029	3096.91501980225	1
0	9031	3097.026651967652	2
0	9032	3097.558374710703	1
0	9037	3098.028329324018	0
0	9077	3112.006231035326	1
0	9081	3112.960317672152	2
0	9083	3113.821405607198	3
0	9084	3114.385932085225	2
0	9089	3115.125673736494	1
0	9095	3117.81881146193	2
0	9097	3119.734182078568	3
0	9099	3120.395584070301	2
0	9111	3127.589783479921	3
0	9113	3130.755121477723	4
0	9115	3133.312586192775	5
0	9116	3134.031473042268	4
0	9121	3134.376612391876	3
0	9127	3134.38070302	4
0	9134	3136.813618347296	5
0	9135	3137.745265976309	4
0	9140	3137.762692830815	3
0	9147	3139.917366918873	2
0	9152	3140.565976926115	1
0	9160	3142.419689375135	2
0	9164	3143.168743573956	3
0	9165	3143.511826453495	2
0	9175	3145.651497856603	1
0	9180	3145.865392288777	0
0	9191	3148.285625262664	1
0	9192	3148.703728453598	0
0	9198	3149.59812654805	1
0	9200	3149.782285055247	2
0	9204	3150.699870782444	3
0	9208	3152.131177004775	4
0	9210	3153.403797362688	5
0	9213	3156.189084105581	4
0	9218	3159.155314400459	3
0	9224	3160.505490661631	4
0	9225	3160.799027037118	3
0	9233	3161.579318419551	4
0	9236	3162.155968618663	5
0	9240	3163.898886262649	4
0	9247	3165.25067081295	5
0	9248	3166.298005598271	4
0	9253	3166.67192765567	3
0	9261	3169.651102550483	4
0	9262	3170.076880868591	3
0	9268	3171.729300639804	4
0	9270	3172.66201364387	5
0	9272	3173.353846591651	6
0	9273	3173.700151917977	5
0	9281	3175.677665328085	6
0	9283	3175.845366330207	7
0	9285	3177.983720449463	6
0	9291	3178.142087164946	7
0	9292	3179.55955837218	6
0	9298	3181.152261480699	7
0	9300	3183.310517849266	6
0	9307	3184.009183449794	5
0	9314	3186.844869399299	4
0	9319	3187.13721070233	3
0	9325	3189.17560149968	4
0	9327	3189.892400462695	5
0	9329	3192.822794361542	6
0	9330	3193.087728856331	5
0	9335	3193.586736517205	4
0	9340	3195.113144765981	3
0	9347	3198.069879837596	2
0	9353	3199.136444956533	3
0	9356	3199.41572719654	2
0	9362	3200.674106423269	1
0	9368	3200.892604125508	2
0	9369	3201.799652213701	1
0	9374	3202.93284021243	0
0	9378	3204.841332775706	1
0	9382	3205.694211865659	2
0	9386	3210.313337116599	1
0	9391	3210.5845853221	0
0	9414	3216.457733590844	1
0	9415	3216.764568559695	0
0	9459	3229.1841169196	1
0	9461	3231.0353012203	2
0	9464	3232.98490946011	1
0	9470	3233.670911053823	0
0	9476	3233.753371438087	1
0	9478	3236.069461884004	0
0	9484	3237.92153320879	1
0	9489	3238.501307878329	0
0	9495	3238.556546161976	1
0	9496	3239.263293522833	0
0	9505	3240.512358364838	1
0	9507	3241.273111708469	2
0	9508	3241.387886264762	1
0	9514	3242.286022142944	0
0	9527	3245.640357723395	1
0	9528	3247.595593767208	0
0	9547	3250.557362959178	1
0	9548	3250.771748237279	0
0	9564	3256.94674194613	1
0	9570	3258.839080862539	2
0	9572	3260.589038430936	3
0	9573	3261.141626347347	2
0	9578	3261.240594943547	1
0	9584	3261.328006685779	2
0	9585	3261.350358370524	1
0	9591	3261.454500065241	2
0	9592	3262.173676995647	1
0	9598	3265.941615116408	2
0	9600	3266.488586743214	3
0	9610	3269.979505225783	2
0	9615	3270.606872323311	1
0	9622	3271.636548156212	2
0	9623	3272.438739478137	1
0	9629	3272.940902554639	2
0	9635	3273.451613601106	1
0	9641	3274.113997861723	2
0	9645	3276.753496941788	1
0	9650	3277.070318183923	0
0	9661	3278.406884988624	1
0	9662	3278.509606154103	0
0	9666	3279.082902766011	1
0	9671	3280.622373069407	2
0	9674	3284.646034408422	1
0	9681	3286.990630421255	0
0	9698	3290.046650351578	1
0	9700	3293.418925205256	2
0	9701	3293.883900890169	1
0	9707	3295.291880206989	0
0	9715	3295.717308761678	1
0	9718	3296.174253851852	2
0	9720	3297.048625380571	3
0	9723	3297.302556070937	4
0	9724	3298.237877812567	3
0	9729	3298.762513166621	2
0	9735	3300.674644126841	3
0	9739	3306.35764862164	2
0	9750	3314.816574219879	3
0	9752	3315.171450801688	4
0	9754	3316.697965181171	5
0	9755	3317.043312662503	4
0	9766	3319.92095041755	5
0	9767	3320.542434996107	4
0	9773	3320.625706712388	5
0	9778	3322.395606115945	6
0	9780	3322.519373685464	7
0	9781	3324.358413580272	6
0	9786	3326.719968564987	5
0	9791	3328.737213653667	4
0	9796	3329.887343835432	3
0	9801	3331.452901949883	2
0	9806	3333.927417350115	1
0	9810	3334.506185201267	2
0	9815	3337.317894263378	1
0	9819	3338.816519971834	2
0	9825	3342.607484268881	3
0	9827	3342.643977657298	4
0	9830	3342.871389744163	3
0	9836	3343.626424464407	4
0	9840	3345.144065406816	3
0	9845	3345.973382917984	2
0	9850	3346.07212854257	1
0	9858	3347.182548018031	2
0	9859	3347.234006298352	1
0	9868	3350.065871097119	2
0	9869	3351.992740858569	1
0	9877	3359.738208277458	0
0	9893	3363.336327124943	1
0	9895	3364.283138006017	2
0	9899	3365.580900879398	1
0	9906	3368.661527127287	2
0	9909	3369.456284826658	3
0	9910	3370.451053314243	2
0	9916	3371.003109748772	1
0	9923	3374.389510358842	2
0	9924	3374.410618816009	1
0	9933	3378.181599741022	0
0	9939	3378.747148925237	1
0	9946	3387.010753715358	2
0	9949	3388.88346805325	1
0	9956	3389.497886509441	2
0	9957	3390.662671476819	1
0	9964	3392.381051634798	2
0	9965	3393.132377183372	1
0	9971	3394.486133497222	0
0	9990	3398.783222334795	1
0	9992	3399.711796949179	0
0	10002	3403.276352171724	1
0	10003	3403.371276205928	0
0	10009	3403.956541965613	1
0	10010	3404.448885325544	0
0	10016	3405.904401357305	1
0	10019	3409.249515498485	2
0	10020	3409.252903139862	1
0	10026	3413.548222398071	0
0	10059	3420.866831309426	1
0	10065	3421.417856096197	2
0	10067	3422.151443223768	3
0	10073	3423.646511121255	4
0	10074	3424.533755145569	3
0	10079	3425.65623565007	2
0	10084	3426.230941946565	1
0	10089	3427.926236836929	0
0	10097	3430.352692039254	1
0	10101	3435.47122066431	2
0	10102	3439.713730439173	1
0	10109	3440.28703929437	2
0	10112	3443.261047400224	1
0	10119	3443.712292763319	2
0	10120	3444.717778940328	1
0	10125	3444.840176605797	0
0	10129	3444.87790511753	1
0	10135	3448.534747659604	2
0	10138	3449.965324307579	1
0	10144	3451.924397615362	2
0	10146	3452.160315340172	3
0	10147	3452.384875538263	2
0	10153	3453.761662588701	1
0	10159	3456.507157856012	0
0	10165	3457.034005974657	1
0	10168	3457.31913243293	2
0	10169	3459.041831643896	1
0	10177	3461.02111426974	0
0	10201	3466.716453698656	1
0	10205	3467.50102781107	2
0	10206	3468.591280815866	1
0	10215	3472.79726800397	2
0	10217	3473.916604085791	1
0	10223	3474.897480990284	0
0	10251	3480.363231164815	1
0	10253	3480.729812607709	2
0	10255	3481.501874533252	3
0	10258	3483.222836007235	2
0	10263	3485.000962169334	1
0	10271	3486.939572975635	2
0	10272	3486.961266554559	1
0	10279	3489.357883615856	2
0	10280	3490.120505125342	1
0	10286	3490.7571957586	0
0	10306	3498.95080229871	1
0	10308	3499.086251057319	2
0	10309	3499.483194908689	1
0	10318	3502.790780598538	0
0	10341	3507.527015312096	1
0	10345	3508.55238579011	0
0	10359	3511.061667264469	1
0	10362	3517.723169213864	0
0	10373	3518.748139200955	1
0	10375	3521.081983774985	0
0	10389	3526.099273079937	1
0	10390	3526.85855932644	0
0	10396	3527.119967120985	1
0	10398	3528.487496799063	2
0	10400	3528.84934023648	3
0	10401	3528.96026373786	2
0	10406	3529.102896715316	1
0	10411	3529.932474292288	0
0	10438	3540.068992043278	1
0	10439	3540.344941868566	0
0	10456	3545.125994344781	1
0	10458	3545.43639132356	0
0	10464	3547.700495322518	1
0	10467	3548.727438917697	0
0	10480	3551.953122261801	1
0	10482	3553.246359797716	0
0	10509	3566.755335678936	1
0	10511	3567.599150360897	2
0	10512	3568.164387115371	1
0	10518	3569.302412285037	0
0	10524	3569.396411196432	1
0	10528	3570.914444727094	0
0	10540	3574.218964866068	1
0	10544	3574.962027539776	2
0	10545	3575.726892597742	1
0	10554	3578.623069003218	2
0	10555	3581.165192780155	1
0	10560	3584.660560714247	0
0	10572	3586.829151326239	1
0	10576	3588.103733803536	2
0	10581	3589.870750422058	1
0	10588	3591.731124756869	2
0	10590	3592.189917076227	3
0	10591	3592.35300478109	2
0	10597	3593.461873830439	3
0	10599	3593.93450918474	4
0	10601	3594.169718773776	5
0	10604	3594.88764191643	4
0	10612	3596.231014050495	3
0	10621	3597.314311502041	2
0	10626	3597.333519764799	1
0	10631	3597.727854845459	0
0	10653	3603.107744552216	1
0	10657	3605.826208573475	0
0	10665	3606.614361521375	1
0	10666	3607.174232002336	0
0	10672	3608.969649376822	1
0	10677	3612.37701490588	0
0	10683	3612.657926066692	1
0	10685	3613.957338375481	0
0	10691	3613.971346427104	1
0	10693	3615.40896426901	0
0	10708	3618.560987726408	1
0	10712	3620.260684591415	2
0	10716	3622.403140496272	3
0	10720	3627.15714833734	4
0	10721	3628.332243011805	3
0	10728	3631.782982107576	4
0	10730	3633.451296175565	5
0	10732	3635.350101908664	6
0	10737	3639.689275228056	5
0	10743	3639.949618720767	4
0	10750	3640.995961392463	3
0	10756	3641.78198148971	2
0	10762	3642.202561188262	1
0	10767	3642.272751021249	0
0	10798	3656.559098666652	1
0	10800	3658.464148174967	0
0	10808	3658.788518636368	1
0	10809	3660.522599215144	0
0	10827	3669.070102139121	1
0	10828	3669.965580485885	0
0	10834	3670.814667426976	1
0	10835	3673.166218534623	0
0	10848	3674.750590949333	1
0	10850	3675.108514404792	2
0	10854	3678.608555826752	3
0	10857	3684.393882973931	2
0	10864	3684.771243160612	3
0	10866	3686.392540397147	2
0	10877	3689.697661286815	3
0	10878	3692.400206311312	2
0	10883	3693.808383197631	1
0	10892	3696.746338461844	0
0	10898	3697.124638841635	1
0	10900	3698.531323137156	2
0	10902	3698.629628871534	3
0	10906	3703.296592315312	2
0	10913	3704.647494266596	1
0	10919	3704.847618816955	2
0	10922	3705.855931988169	3
0	10923	3706.019206398254	2
0	10929	3707.023933577879	3
0	10930	3707.181915748688	2
0	10940	3712.026160475323	3
0	10941	3714.564465442955	2
0	10949	3716.385454891102	1
0	10954	3717.505048807732	0
0	10965	3719.002665648564	1
0	10966	3719.892868111658	0
0	10975	3723.082183591698	1
0	10976	3724.071432441122	0
0	11009	3739.585767227075	1
0	11010	3740.011571809436	0
0	11017	3743.105176077976	1
0	11019	3745.284252028991	2
0	11020	3747.38907354012	1
0	11027	3748.044143411523	0
0	11055	3756.059090491924	1
0	11059	3757.553946049835	2
0	11061	3758.677659442387	3
0	11063	3761.493870488833	4
0	11065	3762.566581116567	5
0	11067	3762.752547747045	6
0	11074	3768.102844617434	5
0	11080	3768.442865280632	4
0	11086	3769.178160383522	5
0	11087	3770.105660768131	4
0	11093	3770.471402653975	5
0	11094	3770.861120710603	4
0	11099	3774.656423638046	3
0	11103	3774.863084542914	4
0	11107	3777.232428742098	5
0	11109	3777.811061473366	6
0	11114	3779.098847594271	7
0	11115	3779.281255127763	6
0	11120	3780.571164857838	5
0	11124	3781.690174761035	6
0	11126	3782.269363470397	7
0	11130	3784.594195923356	6
0	11136	3784.848540680302	7
0	11137	3785.690653233931	6
0	11145	3790.297250638133	5
0	11154	3794.34493519149	4
0	11159	3795.285609647685	3
0	11163	3797.296262981334	4
0	11166	3798.900733606146	3
0	11174	3800.133803476219	2
0	11181	3802.287591737709	1
0	11187	3802.294163091337	2
0	11188	3802.910982371559	1
0	11195	3808.070301252749	0
0	11230	3814.591411388359	1
0	11235	3816.409555866487	0
0	11247	3819.276245180607	1
0	11249	3820.984185285676	2
0	11251	3821.587975521572	3
0	11252	3822.272467982287	2
0	11259	3825.038214089291	1
0	11266	3826.817498134219	2
0	11268	3828.675844868421	3
0	11269	3829.557116973932	2
0	11278	3832.785471108803	1
0	11285	3833.940800950951	0
0	11311	3840.143969715714	1
0	11313	3842.670808808105	2
0	11314	3842.682182236623	1
0	11319	3843.823661629436	0
0	11336	3848.74221373798	1
0	11339	3849.217150875066	0
0	11345	3849.26794070605	1
0	11350	3850.550428562716	2
0	11352	3851.609362753416	3
0	11354	3852.037212403623	4
0	11355	3852.293886543511	3
0	11361	3854.044172079936	2
0	11366	3854.280542882772	1
0	11371	3854.809774787536	0
0	11378	3856.967623741703	1
0	11379	3857.230211931619	0
0	11385	3857.649456402348	1
0	11392	3859.500081973081	2
0	11394	3861.046146741573	3
0	11395	3862.286828334942	2
0	11400	3863.812079949076	1
0	11405	3864.3775296363	0
0	11419	3874.465316976208	1
0	11420	3874.938667585721	0
0	11429	3875.49781418882	1
0	11431	3875.607529329443	2
0	11434	3879.255522719298	1
0	11439	3879.756873977209	0
0	11445	3881.164709417627	1
0	11448	3882.332537254944	2
0	11449	3883.190769694283	1
0	11454	3883.469142501276	0
0	11483	3893.167558125671	1
0	11485	3893.663437549919	2
0	11490	3900.385149680078	1
0	11497	3900.670502097857	0
0	11507	3903.499044843061	1
0	11509	3903.785008684524	2
0	11513	3908.902406658392	1
0	11520	3915.405542505289	2
0	11521	3916.499442210914	1
0	11527	3918.277372587844	2
0	11533	3918.822296664949	3
0	11535	3920.774441399548	2
0	11544	3925.340951640638	3
0	11546	3925.55544262894	4
0	11549	3926.120221187671	3
0	11555	3926.268141693495	4
0	11563	3931.40856380342	3
0	11569	3932.193524030948	2
0	11574	3932.306612852532	1
0	11581	3935.661446910311	0
0	11593	3939.22538822764	1
0	11595	3939.257934377741	2
0	11597	3939.559836885787	1
0	11603	3941.995291137943	0
0	11637	3953.822015776636	1
0	11639	3954.608917399827	2
0	11643	3955.183284088168	3
0	11644	3955.963401972906	2
0	11662	3963.128050953646	1
0	11668	3964.891725843366	0
0	11683	3974.645962702528	1
0	11687	3974.780339627546	2
0	11689	3975.884818431554	3
0	11690	3980.242545989563	2
0	11696	3980.569045515732	3
0	11698	3985.497813396514	2
0	11704	3985.896085331687	1
0	11710	3986.778245669281	2
0	11712	3987.447796356916	3
0	11714	3987.61621946762	4
0	11717	3989.199570837716	5
0	11718	3991.762072443906	4
0	11724	3993.123177168754	5
0	11726	3993.532599082353	4
0	11743	4000.601867495905	5
0	11744	4000.911796084904	4
0	11751	4001.179703628455	5
0	11752	4002.545897785126	4
0	11758	4004.026748515605	3
0	11766	4005.960661946936	2
0	11772	4008.302292431637	1
0	11777	4008.396550462771	0
0	11785	4010.239126001857	1
0	11787	4010.362889593575	2
0	11792	4013.999278336704	1
0	11798	4015.162862980125	0
0	11806	4016.263273735584	1
0	11808	4016.933413708718	0
0	11814	4017.516807763978	1
0	11817	4019.215569291088	2
0	11819	4019.235768553756	3
0	11823	4020.42056451215	4
0	11824	4021.565826558445	3
0	11831	4022.746563090069	2
0	11837	4022.906265730331	3
0	11839	4025.546594148563	2
0	11845	4027.278773999757	1
0	11853	4029.299434230922	0
0	11862	4035.577025363798	1
0	11864	4035.78551217713	2
0	11866	4036.383696048112	3
0	11868	4039.440002924603	4
0	11872	4040.196637064583	5
0	11873	4040.433484560982	4
0	11878	4042.925886874305	3
0	11886	4043.376451610186	4
0	11887	4043.398257780674	3
0	11892	4043.468785133981	2
0	11902	4045.645206312437	3
0	11904	4046.643812528572	2
0	11910	4049.27192878626	3
0	11912	4050.869421026862	4
0	11913	4052.16401951888	3
0	11920	4054.781903131998	2
0	11927	4057.585417968798	3
0	11928	4057.855640234237	2
0	11934	4058.268665435097	3
0	11936	4063.199621236673	2
0	11947	4064.723728163823	3
0	11948	4064.963866097297	2
0	11954	4066.831353767551	1
0	11959	4067.883593148557	0
0	11972	4074.383830397937	1
0	11974	4075.347315617789	0
0	11996	4077.219111179396	1
0	11997	4077.8444840795	0
0	12013	4081.799780407708	1
0	12018	4081.985122863282	2
0	12020	4082.654530637618	3
0	12022	4083.541192570744	4
0	12023	4088.336455723611	3
0	12032	4092.236185016576	2
0	12040	4096.022989786931	1
0	12046	4096.871645979575	0
0	12058	4098.403992441214	1
0	12064	4103.062251666905	2
0	12065	4103.123754968228	1
0	12072	4104.443197320744	2
0	12077	4105.853176910121	3
0	12079	4107.958482629503	4
0	12081	4108.705838016145	5
0	12083	4109.867605868168	6
0	12084	4109.948073342838	5
0	12089	4110.576810803574	4
0	12095	4110.577967632549	5
0	12097	4110.818573853348	6
0	12099	4111.084673312752	7
0	12100	4112.587461359591	6
0	12106	4112.941462808356	7
0	12108	4113.142760597581	8
0	12111	4113.940996818493	7
0	12115	4114.057305758266	8
0	12119	4114.804466051584	9
0	12121	4115.006722968811	10
0	12126	4121.114703641786	9
0	12133	4123.258055568064	10
0	12134	4123.648972232044	9
0	12143	4124.78213699037	10
0	12145	4124.851354871883	11
0	12146	4124.887593592823	10
0	12153	4126.015620669413	11
0	12155	4126.266255983487	12
0	12156	4127.02492911814	11
0	12162	4127.437510025117	12
0	12163	4127.927743175274	11
0	12168	4128.541399625603	10
0	12174	4128.976533969389	11
0	12178	4131.478121827101	10
0	12188	4135.337490301781	9
0	12194	4136.313894793805	10
0	12196	4137.151094443877	11
0	12198	4137.567203151118	12
0	12200	4139.895685554133	11
0	12206	4140.073306170012	12
0	12208	4141.650711303606	13
0	12211	4143.016535982709	14
0	12212	4143.744750922156	13
0	12222	4148.453627931414	12
0	12227	4149.089185146424	11
0	12234	4150.779682583865	12
0	12235	4150.879701373431	11
0	12240	4150.97163225925	10
0	12246	4151.536875495461	11
0	12247	4152.265127263881	10
0	12259	4158.941464651415	9
0	12265	4161.184191543425	8
0	12272	4161.729066583908	9
0	12273	4163.973643966845	8
0	12280	4164.170139664922	7
0	12286	4165.165467411609	6
0	12295	4168.98057914426	5
0	12300	4169.247427696845	4
0	12306	4172.674743341992	3
0	12313	4174.630503732607	2
0	12319	4174.714162117735	3
0	12322	4176.877097932925	4
0	12324	4183.011157438727	3
0	12330	4183.197961328958	4
0	12331	4183.236743518476	3
0	12337	4184.862277215412	2
0	12342	4185.054748766484	1
0	12346	4185.361427097835	2
0	12350	4187.040522921971	3
0	12354	4188.834618847132	4
0	12356	4190.36925248823	5
0	12357	4190.863922613449	4
0	12365	4195.101243944681	5
0	12367	4195.473356595094	6
0	12368	4195.711715143922	5
0	12373	4196.735034028717	4
0	12378	4197.062384336179	3
0	12384	4198.770031473918	4
0	12389	4201.279496165825	5
0	12390	4202.765074461236	4
0	12396	4205.107657851628	3
0	12401	4205.359924560981	2
0	12411	4208.659329201448	3
0	12413	4208.738275008477	4
0	12414	4210.994946931759	3
0	12419	4212.301239677547	2
0	12425	4213.555550099426	3
0	12427	4214.13693396339	4
0	12430	4215.006581882571	5
0	12433	4216.732026184094	6
0	12435	4217.233690690317	7
0	12436	4217.690908007392	6
0	12445	4219.360740140937	5
0	12450	4219.393932348756	4
0	12456	4220.395344062168	3
0	12463	4221.965595597118	2
0	12469	4222.177080909119	3
0	12470	4224.940907709546	2
0	12476	4229.357617518011	3
0	12477	4229.818170672886	2
0	12483	4232.303752672575	3
0	12484	4232.33447651832	2
0	12491	4234.907052934847	1
0	12496	4235.257614533916	0
0	12523	4240.979564125544	1
0	12527	4243.9083503507	2
0	12531	4244.71684786923	3
0	12536	4249.567490616817	4
0	12538	4251.157164744705	5
0	12539	4251.323766074398	4
0	12544	4252.129277059666	3
0	12550	4252.717625430094	2
0	12555	4253.866558914536	1
0	12561	4257.062330771525	0
0	12571	4260.931219861615	1
0	12572	4261.218816720801	0
0	12588	4264.988661793364	1
0	12590	4265.55521351184	0
0	12597	4267.200446165419	1
0	12598	4267.341319719842	0
0	12616	4271.344667414994	1
0	12618	4272.024703076754	2
0	12620	4272.159905874579	3
0	12621	4272.260871994977	2
0	12626	4273.189381044118	1
0	12634	4274.667164942625	0
0	12664	4285.781692594447	1
0	12666	4287.418505483338	0
0	12688	4295.188469701301	1
0	12689	4297.344880803844	0
0	12716	4303.770922851423	1
0	12718	4303.977779133125	2
0	12721	4305.718106699089	1
0	12726	4305.783403286586	0
0	12735	4307.960554290772	1
0	12739	4309.496030507314	2
0	12741	4310.855381027094	3
0	12745	4312.084693570918	2
0	12750	4312.310712268014	1
0	12756	4312.836863546819	0
0	12783	4324.058580947272	1
0	12784	4324.83531354085	0
0	12793	4325.528240701425	1
0	12797	4327.89115117105	2
0	12800	4332.483787363432	1
0	12805	4335.222066128044	0
0	12827	4345.213475482426	1
0	12832	4347.018656183315	0
0	12844	4350.265748392386	1
0	12846	4351.328600568065	0
0	12872	4361.121825774686	1
0	12873	4361.737828225273	0
0	12881	4362.408238604027	1
0	12883	4362.800422506886	2
0	12885	4363.261533702947	1
0	12890	4364.686515115685	0
0	12902	4366.230813967126	1
0	12906	4367.608620039766	2
0	12907	4367.835243188701	1
0	12914	4369.422296745164	0
0	12961	4386.55470143756	1
0	12965	4388.698889727281	2
0	12967	4389.622759273485	3
0	12969	4390.166658414603	4
0	12973	4390.938785859894	5
0	12979	4392.56887651445	6
0	12983	4400.81805986553	7
0	12984	4401.117951927662	6
0	12992	4402.172149255792	5
0	13000	4404.500002397924	4
0	13009	4409.083636001755	3
0	13014	4409.709847624183	2
0	13021	4411.958035885915	3
0	13022	4413.073895043635	2
0	13028	4413.738842082294	1
0	13036	4419.479600342715	0
0	13048	4426.175745609473	1
0	13049	4426.941526802194	0
0	13075	4438.101626696099	1
0	13076	4439.487645247899	0
0	13090	4443.98796381205	1
0	13093	4446.328516916684	0
0	13104	4452.098601321946	1
0	13105	4452.23424022957	0
0	13118	4453.758729352741	1
0	13121	4453.820527557775	2
0	13122	4454.118638450185	1
0	13126	4455.377571694241	2
0	13137	4463.438320105707	3
0	13141	4464.22421090738	4
0	13142	4465.919012258576	3
0	13147	4466.035152215989	2
0	13152	4466.879753662269	1
0	13157	4467.017666266486	0
0	13184	4475.896259446455	1
0	13188	4476.646484755316	2
0	13190	4477.531875346025	3
0	13197	4485.757303641765	2
0	13204	4487.310538788256	1
0	13211	4489.084286685348	2
0	13213	4492.236725865583	1
0	13218	4494.466574373586	0
0	13224	4494.847808588027	1
0	13225	4495.038990891082	0
0	13233	4502.374671513204	1
0	13235	4502.814733258221	2
0	13236	4504.277469033965	1
0	13245	4507.078626607852	2
0	13246	4509.00228032566	1
0	13253	4509.48938619413	2
0	13256	4511.09185760098	1
0	13261	4511.656170287992	0
0	13281	4513.915474682394	1
0	13285	4515.495626757255	2
0	13290	4517.853493327208	1
0	13298	4519.532051577454	2
0	13299	4519.74918729433	1
0	13305	4523.939035068094	0
0	13317	4527.705934542033	1
0	13319	4532.223020022267	2
0	13320	4532.44052375569	1
0	13326	4533.160315325416	2
0	13328	4533.472761739799	3
0	13333	4535.388629561793	4
0	13334	4535.431980089384	3
0	13341	4538.24532174696	4
0	13345	4539.273736390081	5
0	13347	4541.260635127668	6
0	13348	4541.981077455498	5
0	13355	4544.881859346172	4
0	13360	4545.571570417049	3
0	13369	4546.906028785892	4
0	13371	4548.01458162342	5
0	13372	4548.582276735804	4
0	13378	4549.524050421334	3
0	13386	4552.890338548088	2
0	13391	4554.440077808958	1
0	13398	4557.05514835172	0
0	13415	4559.956270500531	1
0	13417	4560.444619447317	2
0	13420	4561.332570839484	1
0	13425	4561.479384334489	0
0	13445	4569.646808753241	1
0	13448	4572.386283307315	0
0	13465	4577.916079895857	1
0	13468	4578.713145274923	0
0	13490	4583.093710357443	1
0	13497	4587.214384666799	0
0	13509	4591.415172154201	1
0	13512	4593.302031634492	2
0	13517	4597.81598867074	3
0	13518	4600.780746407685	2
0	13524	4602.762893678203	1
0	13532	4603.250602629933	2
0	13533	4603.471134716529	1
0	13538	4604.080636114236	0
0	13544	4604.618127601793	1
0	13545	4605.814076299478	0
0	13551	4606.749827675773	1
0	13553	4606.813126401772	2
0	13554	4608.686188387609	1
0	13559	4609.749903788026	0
0	13572	4614.682417980324	1
0	13573	4615.06791444369	0
0	13592	4623.047157746239	1
0	13594	4623.583772532866	2
0	13597	4625.820521856286	1
0	13603	4626.576418144814	0
0	13609	4627.151837604666	1
0	13611	4628.136034660874	0
0	13620	4632.085025910045	1
0	13623	4633.316886463074	2
0	13625	4634.100519485196	3
0	13628	4639.422074314797	2
0	13633	4639.424968603924	1
0	13638	4639.752783895324	0
0	13653	4640.90322333012	1
0	13662	4644.589375462272	2
0	13665	4646.653701237269	1
0	13671	4647.634983409902	0
0	13678	4648.971486332938	1
0	13679	4649.718658612472	0
0	13685	4650.783063576483	1
0	13691	4654.40699900094	0
0	13700	4657.367035637937	1
0	13702	4658.173507428971	2
0	13703	4662.252700651996	1
0	13708	4662.843464666176	0
0	13754	4679.642084213268	1
0	13757	4680.758464471366	0
0	13769	4684.422463095123	1
0	13771	4685.013674156845	2
0	13772	4685.071333638909	1
0	13777	4685.076578091678	0
0	13792	4692.260616579842	1
0	13795	4695.960097467042	0
0	13806	4699.057423595616	1
0	13809	4699.996165377102	2
0	13811	4700.128253393502	3
0	13812	4700.483571218437	2
0	13821	4704.987569189352	3
0	13822	4706.740213597072	2
0	13830	4709.378201259431	1
0	13835	4710.313851914776	0
0	13849	4716.185262061666	1
0	13852	4717.718019060935	0
0	13865	4722.430744974638	1
0	13871	4725.160131050361	2
0	13874	4726.829457798505	1
0	13879	4727.332312069408	0
0	13907	4733.710111008155	1
0	13909	4734.944836436252	2
0	13913	4736.098862383289	3
0	13914	4736.841753316595	2
0	13920	4738.029590672756	3
0	13921	4739.062262727758	2
0	13927	4739.717484207136	1
0	13933	4739.971386788618	2
0	13935	4740.276181858261	1
0	13941	4740.332663363618	2
0	13942	4740.354577096323	1
0	13949	4741.80987051749	0
0	13980	4752.38677691713	1
0	13981	4752.940106792649	0
0	13990	4754.111505454175	1
0	13994	4754.641832823815	2
0	13996	4757.566836241496	1
0	14002	4757.96970526008	2
0	14004	4758.130599521444	3
0	14006	4759.423508834419	2
0	14013	4761.011519927815	3
0	14014	4761.493215032946	2
0	14020	4763.315852580362	1
0	14026	4763.414033077385	2
0	14033	4764.403481104339	3
0	14035	4765.20037383429	4
0	14037	4765.546209669887	5
0	14038	4765.733728825733	4
0	14045	4767.253801543479	3
0	14052	4767.478506385156	2
0	14058	4767.603910370446	3
0	14061	4768.793985107391	4
0	14063	4770.424786959607	3
0	14069	4771.842785584993	4
0	14070	4772.066604981605	3
0	14080	4774.344301584134	2
0	14088	4774.657595097439	3
0	14092	4777.139919847111	2
0	14100	4778.963468692361	1
0	14106	4779.632963439829	2
0	14107	4780.255625275521	1
0	14114	4782.778052406611	0
0	14121	4784.598660616292	1
0	14122	4785.112573797612	0
0	14135	4789.411149420603	1
0	14138	4789.844413214134	0
0	14150	4794.944829567724	1
0	14151	4795.641871669884	0
0	14175	4807.727355259349	1
0	14178	4808.405026190338	0
0	14194	4812.53016527323	1
0	14199	4816.922302768783	0
0	14205	4817.411969528563	1
0	14206	4818.091786721609	0
0	14217	4819.667148733121	1
0	14218	4820.095976462017	0
0	14243	4830.755195457542	1
0	14245	4832.456923245791	0
0	14251	4835.318330660137	1
0	14253	4836.516449668592	2
0	14255	4836.561546329429	3
0	14257	4837.154121588305	4
0	14258	4837.412931474799	3
0	14267	4841.059475459709	2
0	14273	4841.444106917463	1
0	14279	4842.162856239356	0
0	14286	4842.952778216792	1
0	14288	4846.038791001171	0
0	14295	4846.309580736701	1
0	14296	4846.721076253905	0
0	14308	4847.940218238215	1
0	14310	4849.627470968006	2
0	14311	4849.729918896362	1
0	14316	4849.929251795519	0
0	14327	4856.245701869225	1
0	14328	4858.099088144324	0
0	14358	4864.136374392941	1
0	14367	4868.040223079114	0
0	14406	4876.526601863663	1
0	14407	4878.858478122743	0
0	14432	4890.985178314933	1
0	14435	4891.950522468539	0
0	14442	4894.063840149399	1
0	14443	4894.878385897249	0
0	14456	4899.439346061097	1
0	14457	4900.478843145453	0
0	14471	4903.143581223289	1
0	14473	4903.902755813399	2
0	14474	4906.272082468209	1
0	14479	4906.614597446129	0
0	14493	4908.868860253444	1
0	14496	4912.944804614057	0
0	14503	4915.800097134109	1
0	14505	4917.283470607384	2
0	14506	4918.775629686506	1
0	14512	4919.554158292438	2
0	14514	4919.634648143884	3
0	14516	4921.193039713233	2
0	14522	4922.248251967169	3
0	14524	4923.201465112621	2
0	14531	4924.558030696618	3
0	14534	4926.527710172138	2
0	14539	4927.61377496982	1
0	14544	4928.775365795848	0
0	14579	4941.498767937367	1
0	14581	4942.534466243588	2
0	14584	4946.564302750564	1
0	14590	4951.161165763702	0
0	14596	4952.203710447389	1
0	14598	4953.831113879341	2
0	14601	4954.810834556029	3
0	14602	4955.303631518745	2
0	14612	4960.372619717114	1
0	14617	4960.529518698026	0
0	14631	4964.977225382692	1
0	14635	4969.866218301059	2
0	14636	4969.890068251698	1
0	14641	4969.90517760499	0
0	14669	4975.822706095554	1
0	14673	4977.81688221025	2
0	14674	4978.823800242784	1
0	14681	4980.014442404299	2
0	14683	4982.11430311616	1
0	14689	4983.34784036406	2
0	14693	4984.544991274	3
0	14695	4986.829934456217	4
0	14696	4987.384414122122	3
0	14701	4987.624640587731	2
0	14707	4988.774258061275	3
0	14713	4992.207078355637	4
0	14714	4996.438565416216	3
0	14720	5000.834682342196	2
0	14726	5002.238911163013	1
0	14731	5002.731849236143	0
0	14737	5004.09118775182	1
0	14744	5006.829353370977	2
0	14745	5007.535768189868	1
0	14750	5009.357020304262	0
0	14785	5023.715523699628	1
0	14788	5029.403522137425	0
0	14796	5032.923973920393	1
0	14798	5033.504808119526	2
0	14802	5036.688010288087	3
0	14803	5039.145386863733	2
0	14808	5039.515816756636	1
0	14814	5040.676762273481	0
0	14838	5049.820824146718	1
0	14839	5050.660808439015	0
0	14864	5059.585523708728	1
0	14865	5060.549029688996	0
0	14885	5062.490584467068	1
0	14889	5062.833266825043	2
0	14892	5062.953560014226	1
0	14898	5065.48509813729	0
0	14904	5065.512675379968	1
0	14907	5066.313143300804	2
0	14909	5068.29051482876	3
0	14911	5068.299652840215	4
0	14912	5069.222364252407	3
0	14917	5069.245350975896	2
0	14925	5069.631008131906	3
0	14926	5069.660841709769	2
0	14935	5072.007196465985	3
0	14937	5075.184709750676	4
0	14939	5076.329639846969	5
0	14941	5077.290817679503	6
0	14942	5078.675507390256	5
0	14948	5078.809665885293	6
0	14951	5081.414632419867	5
0	14957	5082.331420348169	4
0	14962	5082.647797338281	3
0	14967	5083.911613851955	2
0	14973	5084.644304167752	1
0	14978	5084.644813457115	0
0	15006	5091.725503688866	1
0	15007	5092.888230997548	0
0	15013	5093.321568565352	1
0	15015	5093.882709591206	0
0	15031	5094.45848624776	1
0	15035	5095.523761396342	0
0	15041	5096.019739870873	1
0	15043	5097.472094008139	2
0	15045	5097.692848109692	3
0	15047	5098.087316509505	2
0	15052	5098.496718582925	1
0	15063	5105.518486167997	0
0	15082	5113.624335931587	1
0	15085	5116.134147486692	0
0	15092	5116.555023400818	1
0	15093	5117.154447380684	0
0	15116	5119.898694798516	1
0	15119	5122.669814502298	0
0	15128	5124.607721573262	1
0	15129	5125.052139190729	0
0	15136	5125.706405691907	1
0	15138	5125.726229041804	2
0	15139	5126.053610330926	1
0	15144	5126.155510923573	0
0	15153	5129.079766792583	1
0	15154	5129.264583589486	0
0	15161	5129.488772638947	1
0	15163	5130.290701237339	2
0	15165	5130.699052277401	3
0	15167	5134.795656543449	4
0	15168	5135.771631768991	3
0	15174	5138.617903612873	2
0	15179	5138.71648216896	1
0	15189	5141.222329873044	0
0	15201	5143.609737535049	1
0	15202	5143.979735562286	0
0	15208	5144.613665832382	1
0	15216	5153.404650601563	2
0	15218	5153.877580017929	3
0	15220	5155.063971090892	4
0	15221	5157.359559956732	3
0	15232	5160.008255454188	4
0	15233	5162.227437864289	3
0	15240	5165.583684401009	2
0	15246	5167.975549808123	1
0	15251	5168.111817030115	0
0	15268	5174.296586688799	1
0	15271	5177.850879684901	0
0	15295	5183.380779981138	1
0	15299	5186.22348374609	2
0	15305	5188.82450906527	3
0	15306	5190.583594492262	2
0	15311	5190.89264819886	1
0	15319	5193.166932550018	2
0	15322	5195.387843281559	1
0	15328	5196.135624451751	0
0	15335	5197.240774330762	1
0	15336	5200.523363356239	0
0	15348	5206.005247002309	1
0	15349	5207.149115975781	0
0	15356	5210.108981721345	1
0	15357	5211.633202776076	0
0	15371	5215.282422687806	1
0	15375	5216.2656918367	2
0	15376	5218.304311562472	1
0	15381	5219.736804525641	0
0	15406	5226.047401765964	1
0	15409	5227.033586330214	0
0	15416	5230.520950619784	1
0	15417	5230.626160305754	0
0	15432	5232.481293557566	1
0	15438	5234.563797839957	2
0	15439	5235.317498537311	1
0	15444	5235.553825243211	0
0	15455	5239.017486651842	1
0	15460	5241.333042587253	0
0	15475	5243.586719396129	1
0	15477	5243.824966663361	2
0	15478	5244.144482106678	1
0	15485	5248.771562537222	0
0	15491	5248.822267231673	1
0	15492	5249.058305875283	0
0	15498	5250.95898435791	1
0	15499	5251.842793507684	0
0	15574	5273.110397047971	1
0	15575	5273.291616713514	0
0	15584	5275.131476436661	1
0	15590	5276.624199244438	2
0	15594	5278.719483693345	3
0	15595	5279.844310564581	2
0	15600	5280.304721735031	1
0	15607	5284.649880235988	0
0	15613	5285.020792218419	1
0	15616	5288.495083383334	0
0	15629	5291.935767482668	1
0	15630	5292.259821525972	0
0	15638	5292.98662410805	1
0	15640	5296.386052008166	2
0	15641	5298.880310357962	1
0	15647	5299.042507523356	2
0	15650	5299.951081010329	1
0	15657	5301.296279340173	0
0	15663	5301.53475884938	1
0	15666	5304.194328926774	0
0	15684	5309.324845243251	1
0	15686	5312.565464807434	2
0	15689	5314.174504529046	1
0	15694	5314.897812864128	0
0	15703	5318.458600343842	1
0	15705	5318.764445318017	2
0	15706	5319.48058088294	1
0	15711	5319.484603766151	0
0	15717	5320.504330888576	1
0	15718	5322.962348823095	0
0	15754	5336.789385704864	1
0	15757	5337.912094618113	0
0	15771	5344.023866892999	1
0	15777	5347.183242219391	2
0	15780	5349.164450485651	1
0	15786	5350.289261632871	0
0	15803	5355.955266213789	1
0	15806	5359.770402202012	0
0	15823	5364.618270628041	1
0	15829	5366.871081931244	2
0	15832	5370.237030038907	1
0	15838	5370.653576472258	0
0	15848	5372.389920408302	1
0	15849	5372.577427840159	0
0	15861	5374.807352958377	1
0	15862	5375.188919588083	0
0	15868	5375.268585339618	1
0	15871	5376.634322204218	0
0	15892	5384.863182080585	1
0	15903	5394.368027188968	0
0	15914	5396.526765722046	1
0	15915	5399.256169011846	0
0	15921	5399.957484443147	1
0	15925	5401.604063667166	2
0	15927	5401.748270020383	3
0	15934	5403.779478426391	4
0	15935	5404.974088162761	3
0	15944	5406.713168740455	4
0	15945	5407.145302428625	3
0	15952	5408.925425583151	4
0	15954	5408.940663523745	5
0	15958	5410.862134779293	4
0	15967	5414.06244952574	5
0	15968	5414.596234499907	4
0	15974	5414.727533175896	5
0	15976	5416.903024564625	4
0	15981	5417.804284479072	3
0	15987	5417.833998512659	4
0	15995	5422.89405503983	3
0	16001	5424.042560874756	4
0	16003	5424.623007351527	5
0	16007	5426.202639134077	6
0	16009	5432.168993341434	7
0	16011	5436.890776437337	8
0	16012	5438.448957921244	7
0	16018	5439.209936724584	6
0	16024	5440.349427616685	7
0	16027	5441.286609521059	6
0	16038	5442.771749368159	7
0	16041	5443.808532931006	6
0	16047	5445.322557773718	7
0	16049	5445.437178529584	8
0	16050	5448.962481030694	7
0	16055	5451.097438185902	6
0	16063	5453.502031406775	7
0	16069	5454.45858237066	6
0	16074	5455.60720871505	5
0	16081	5456.409904885755	6
0	16085	5458.01741093828	7
0	16086	5458.847287054022	6
0	16091	5459.615682899272	5
0	16096	5459.74284227077	4
0	16103	5460.350122933358	5
0	16105	5460.95205125015	4
0	16110	5462.548716051471	3
0	16116	5463.046461018119	2
0	16125	5465.921393649953	1
0	16136	5473.206299228027	2
0	16137	5473.475907374615	1
0	16144	5476.718822206911	2
0	16145	5478.20488005583	1
0	16151	5479.582335668271	2
0	16153	5480.483126049032	1
0	16163	5484.60662818157	0
0	16207	5493.60804425726	1
0	16210	5493.863740252555	0
0	16222	5495.679707722905	1
0	16224	5495.746788853298	2
0	16227	5497.031360136725	3
0	16228	5497.201435287197	2
0	16234	5497.536868285246	3
0	16236	5498.025434918421	4
0	16238	5499.91751048678	5
0	16240	5500.609773838569	6
0	16241	5500.931650263744	5
0	16246	5501.492865884395	4
0	16251	5502.680782854468	3
0	16257	5503.171506314346	4
0	16258	5504.700176002294	3
0	16262	5504.824215776336	4
0	16271	5510.911838615756	5
0	16274	5511.833491636588	6
0	16275	5511.864246354554	5
0	16280	5514.304925118185	4
0	16284	5514.869141322652	5
0	16286	5515.460263849374	6
0	16288	5515.64161519402	7
0	16294	5518.149437625858	8
0	16296	5521.849729238483	7
0	16303	5522.732799999194	8
0	16304	5527.2348576873	7
0	16309	5527.322220610415	6
0	16315	5528.311774456059	7
0	16318	5529.936288236346	6
0	16326	5534.511970876132	5
0	16336	5539.026079324894	6
0	16337	5539.873247927224	5
0	16342	5541.718395328328	4
0	16349	5542.896780388968	5
0	16350	5543.118197132105	4
0	16355	5543.253332281591	3
0	16359	5544.75325178001	4
0	16363	5547.563442207542	5
0	16365	5547.923924340162	4
0	16370	5548.124557801627	3
0	16374	5548.177348671431	4
0	16376	5548.447598407868	5
0	16380	5549.272062511418	4
0	16386	5554.171465620118	3
0	16392	5554.201622930505	4
0	16393	5554.865772532982	3
0	16398	5556.972878955957	2
0	16402	5559.556938677827	3
0	16406	5559.990417293742	4
0	16410	5560.468286134274	5
0	16411	5560.754658714786	4
0	16415	5562.28072368186	5
0	16422	5563.466039304659	6
0	16423	5564.207000244214	5
0	16433	5565.35339495178	6
0	16434	5565.739609689021	5
0	16439	5567.120409818686	4
0	16446	5569.376172915551	3
0	16454	5570.704251189492	4
0	16458	5573.714676441815	3
0	16464	5577.070660815835	2
0	16470	5578.109832260633	3
0	16471	5578.479844238542	2
0	16475	5580.026539155323	3
0	16477	5580.553765004015	4
0	16479	5580.993394127902	5
0	16483	5581.636438293163	6
0	16485	5581.920680012467	7
0	16486	5584.091077844517	6
0	16492	5587.824517227393	5
0	16498	5588.094065778038	4
0	16503	5588.871737710279	3
0	16508	5589.588482798362	2
0	16513	5590.564680586929	1
0	16517	5591.27744533678	2
0	16521	5593.322133981808	3
0	16523	5593.913604147035	2
0	16529	5594.287699915729	1
0	16540	5598.575966342337	2
0	16542	5599.403911889377	3
0	16543	5600.725487805149	2
0	16549	5602.004759754119	1
0	16554	5602.092306566116	0
0	16560	5604.102313312953	1
0	16563	5607.646749994077	0
0	16584	5616.786214712351	1
0	16586	5616.884668416195	2
0	16587	5619.642320557937	1
0	16593	5619.817636993987	2
0	16594	5620.017801390223	1
0	16602	5622.527835671068	0
0	16608	5622.875314913754	1
0	16611	5623.777385484975	2
0	16613	5624.611588914586	3
0	16617	5632.287654350102	2
0	16624	5633.804362804747	3
0	16627	5636.113276972313	2
0	16633	5637.577664962163	3
0	16635	5638.727727392247	2
0	16642	5640.079034801138	3
0	16644	5641.979215686508	4
0	16645	5642.411952112101	3
0	16652	5643.104195624036	4
0	16655	5644.240219044411	3
0	16660	5644.87155702484	2
0	16665	5644.976260436271	1
0	16673	5648.552112762286	0
0	16693	5651.778750423028	1
0	16698	5653.847962452907	0
0	16706	5656.424008844313	1
0	16707	5657.134997699049	0
0	16741	5663.130518992388	1
0	16744	5664.214718220311	0
0	16756	5667.361089917038	1
0	16757	5667.663539656035	0
0	16766	5668.300290199038	1
0	16776	5673.774101716444	2
0	16781	5679.011662779793	1
0	16787	5679.610954072411	2
0	16788	5681.260390074377	1
0	16794	5684.39123518005	0
0	16800	5685.048968401265	1
0	16803	5686.917085149327	2
0	16807	5689.809698841556	1
0	16814	5690.444225293134	2
0	16816	5692.542718456671	3
0	16817	5695.393596205351	2
0	16823	5696.681522968192	1
0	16830	5697.13289119472	0
0	16841	5697.220261246796	1
0	16843	5697.233446520959	2
0	16845	5698.389509149114	1
0	16853	5698.814458918375	2
0	16855	5699.6464029346	1
0	16860	5700.308299041671	0
0	16872	5701.076799721226	1
0	16874	5701.422721111539	2
0	16877	5705.39256978373	1
0	16883	5707.903098246003	0
0	16895	5709.261980849121	1
0	16899	5711.281461878521	0
0	16912	5716.345906762714	1
0	16914	5716.386089473172	2
0	16917	5718.242905391223	3
0	16918	5718.296013961396	2
0	16925	5718.95419235592	3
0	16927	5719.506995328049	4
0	16929	5719.618494651069	5
0	16931	5719.803311659563	6
0	16936	5725.827090361202	5
0	16942	5726.282299592599	4
0	16949	5728.229304378272	5
0	16950	5728.396914619939	4
0	16955	5728.886450867735	3
0	16960	5730.739198727778	2
0	16965	5732.567297627249	1
0	16970	5733.854771199902	0
0	16974	5734.368593168073	1
0	16978	5736.034378593456	2
0	16986	5739.653799508429	1
0	16993	5742.965626842743	0
0	17010	5755.116026074654	1
0	17012	5758.835434629804	2
0	17017	5764.460583703102	1
0	17022	5764.652813832463	0
0	17039	5767.685077154073	1
0	17045	5770.526512497172	0
0	17056	5770.797750787631	1
0	17057	5771.351155943691	0
0	17066	5772.276855175008	1
0	17067	5772.710614007456	0
0	17074	5772.815368655685	1
0	17075	5773.564263982483	0
0	17081	5773.685408366091	1
0	17085	5774.826223569398	0
0	17101	5780.526878438474	1
0	17102	5781.034019681058	0
0	17110	5783.111012952332	1
0	17111	5783.334459973662	0
0	17122	5783.601867852839	1
0	17126	5785.046736533066	2
0	17127	5785.173144067886	1
0	17132	5785.932755935013	0
0	17138	5786.276861297433	1
0	17139	5790.582799812242	0
0	17145	5791.09259235157	1
0	17147	5792.300697711463	0
0	17165	5793.438953778192	1
0	17170	5793.676487366876	2
0	17171	5794.720483249562	1
0	17178	5796.466011297508	2
[...]
5	78602	26420.042877545908	7266.3459346959
5	78613	26422.853455435776	7256.1405397706
5	78632	26426.986268947144	7252.1340756438
5	78645	26433.485371716095	7250.3701036939
5	78660	26435.889837577451	7244.4077417804
5	78671	26439.008618956744	7236.2160970924
5	78676	26439.351017258599	7236.4074626055
5	78685	26444.121676536367	7240.2914387361
5	78747	26459.96370579736	7253.9947077423
5	78752	26460.752703428393	7247.5269400854
5	78759	26463.877954820004	7231.6725540191
5	78772	26470.226322968151	7237.8275711042
5	78786	26472.213201893427	7229.9834362131
5	78804	26476.451267104717	7229.9331851559
5	78927	26505.447855940867	7257.5733248822
5	78932	26506.101088955659	7244.5182977539
5	78937	26509.068119467275	7240.3268670478
5	78942	26510.46198920585	7240.8582937184
5	78953	26513.438928843861	7242.6207492264
5	78980	26519.322201826563	7236.4045886596
5	78989	26522.387482237914	7238.7806515396
5	79016	26528.680525091401	7236.3384568091
5	79025	26532.47683869219	7230.7269765673
5	79045	26537.118082371663	7228.7685543875
5	79082	26545.285833794333	7229.8690913267
5	79134	26559.725860153807	7237.3558812203
5	79166	26568.046037700114	7241.56817983
5	79185	26579.65152901009	7248.899827668
5	79203	26581.169462183859	7243.1177204777
5	79208	26581.591621274423	7239.9903642995
5	79215	26584.655093876355	7242.6082526433
5	79231	26587.886490169313	7244.7865656366
5	79254	26596.441059076606	7249.7743592747
5	79281	26599.004327093232	7244.6404319843
5	79288	26601.52686943362	7239.6684745805
5	79299	26611.957691040428	7246.3604957558
5	79513	26691.638662599356	7324.9056588682
5	79526	26700.957837120636	7332.123801864
5	79567	26708.449303672453	7332.0509810924
5	79751	26771.89473696048	7393.8189367792
5	79759	26773.205499175406	7392.6866744455
5	79774	26781.466658778121	7399.4327406897
5	79834	26807.96937158221	7412.0124297414
5	79858	26814.331749381267	7417.452046628
5	79877	26820.424532047362	7410.1899750676
5	79912	26831.790052330494	7415.7225052104
5	79988	26848.782869430138	7432.1335580838
5	80039	26875.718581933292	7457.7008276036
5	80055	26881.63908836116	7456.9240692287
5	80094	26893.491593085069	7468.322621066
5	80105	26897.181405837233	7459.854855009
5	80122	26901.730120030032	7453.1491278964
5	80142	26906.663011599124	7451.1780329634
5	80152	26913.070820161473	7451.7537570739
5	80251	26945.956372893127	7482.9552953021
5	80257	26949.501960625403	7476.0697875762
5	80266	26952.314236953372	7477.3022247323
5	80352	26974.350914842656	7498.8994892932
5	80363	26976.155003281929	7493.3294331409
5	80368	26979.955705661274	7495.7986944887
5	80380	26984.245403020825	7484.0107974702
5	80400	26989.758113414976	7488.7509891718
5	80405	26990.475438240137	7479.3980829426
5	80415	26992.192325266839	7477.2940630566
5	80485	27012.191422516586	7493.9174873594
5	80490	27012.751538677916	7490.4040156084
5	80500	27018.604486640151	7495.9899190209
5	80535	27031.01718425793	7502.0957609831
5	80545	27037.08300242756	7499.6573477821
5	80551	27040.067026699192	7495.3701000262
5	80558	27042.744446332555	7494.9374204137
5	80576	27049.344026446975	7494.7282026597
5	80598	27056.221895719346	7487.5122793285
5	80607	27059.847841669829	7487.2538282146
5	80628	27066.329952765691	7485.758200324
5	80646	27071.233197130466	7488.4587254311
5	80652	27074.459427880987	7491.2883086458
5	80657	27076.617581534846	7489.9209584542
5	80664	27079.038677971836	7489.9787749911
5	80709	27093.375149877882	7497.6426708705
5	80733	27102.742729813479	7496.5123773062
5	80743	27102.98941637535	7493.7064188481
5	80755	27109.550471738371	7495.0521069881
5	80774	27130.663702955011	7511.2153458312
5	80794	27137.567436164339	7501.9609080413
5	80801	27139.209048180067	7503.2436394726
5	80824	27146.382402442986	7508.9859190872
5	80851	27149.198094897445	7501.2623109628
5	80867	27153.213237738104	7499.4967024821
5	80874	27155.699762092002	7499.6081146142
5	80887	27159.856321908925	7491.774707738
5	80932	27169.350321985315	7491.8258742338
5	80937	27170.536292101582	7491.6199555056
5	80944	27172.683387381976	7489.463856277
5	80960	27178.032646065239	7489.8187497374
5	80972	27183.258410105443	7491.6253914411
5	81000	27189.584140989723	7497.7340421323
5	81181	27242.447857647428	7549.5169097968
5	81190	27244.006086883057	7531.2381952592
5	81204	27246.839468085196	7523.7079288715
5	81217	27255.712961813967	7524.9698794008
5	81349	27292.754456327423	7560.9682700959
5	81354	27292.93484429624	7559.0889710059
5	81359	27293.108938821389	7558.2864648587
5	81368	27296.871052777285	7561.0541074766
5	81385	27306.696748906784	7565.8927798528
5	81460	27320.723184000248	7571.7062881825
5	81546	27350.870882384424	7596.9882247966
5	81559	27353.097987885194	7598.4925074511
5	81598	27371.881261393668	7609.9956576256
5	81608	27373.382949023541	7609.9350857692
5	81637	27379.492194806085	7611.0640505102
5	81714	27409.275380768395	7629.4548954495
5	81731	27418.296337713558	7638.003762721
5	81823	27447.755828483706	7657.1948798243
5	81828	27448.43273745662	7652.2557573389
5	81836	27449.763237672492	7642.2945688781
5	81849	27452.741147915658	7644.0619958791
5	81858	27454.214334532681	7642.081852316
5	81884	27461.125722201019	7647.5058707574
5	81963	27479.247640005982	7663.2527467781
5	82030	27498.488441894024	7678.9489196842
5	82090	27515.887518357561	7694.7815936223
5	82130	27525.44019599751	7702.00655621
5	82136	27526.086041361066	7689.2016011721
5	82145	27528.176427619799	7671.9282827889
5	82150	27528.721998685226	7666.7073153659
5	82155	27529.929457595372	7653.4429910865
5	82164	27541.00417972097	7659.5798741896
5	82187	27550.150148669606	7662.1547200159
5	82397	27610.361193124309	7719.1421308811
5	82402	27610.363679882084	7708.8572730749
5	82412	27613.114921668731	7697.3839688953
5	82417	27613.664786831143	7681.8538156425
5	82424	27616.302416614552	7677.7328049322
5	82457	27628.472814368062	7685.052844698
5	82557	27654.501787740268	7704.5790002291
5	82562	27654.991526536989	7702.9727188593
5	82571	27659.375297370591	7702.2788150546
5	82620	27673.844485077242	7714.8487884935
5	82647	27683.565033608648	7718.9527252361
5	82672	27689.282550050029	7724.4399985284
5	82701	27702.52645529369	7736.9314409202
5	82712	27704.576795136438	7736.6836282176
5	82719	27706.804965223325	7737.7844987316
5	82732	27710.320261971389	7739.4152615714
5	82745	27719.999613697619	7743.9856013794
5	82757	27721.055979238977	7735.2646628484
5	82763	27727.377803577326	7734.5621047273
5	82771	27729.545664431787	7730.1587664152
5	82776	27730.460677862987	7724.0516029876
5	82781	27732.13579538685	7716.3914090003
5	82792	27734.363484932066	7707.8176357079
5	83018	27808.508725373478	7780.1370552344
5	83060	27826.335034529451	7777.3727912868
5	83065	27827.32592755159	7777.6072634494
5	83071	27829.711758394035	7771.5978207322
5	83077	27831.057879957672	7772.7021088228
5	83082	27831.830067333807	7757.6599394965
5	83087	27835.068565728202	7755.6871718139
5	83096	27842.870623640603	7760.1174744161
5	83113	27849.082003445017	7758.0421670972
5	83119	27851.247396969475	7752.6481635578
5	83124	27854.494413386478	7741.1212490669
5	83133	27862.553213866989	7745.9906829711
5	83159	27868.303754087494	7740.3908664991
5	83170	27874.12684628291	7729.235973444
5	83190	27878.534722481636	7730.2513433467
5	83199	27883.656770750144	7721.1467473819
5	83209	27886.690583045938	7722.1522766405
5	83214	27887.128321925464	7716.6978032976
5	83219	27888.142139775686	7695.6011939938
5	83228	27894.703911098941	7696.3261434633
5	83247	27898.601359480288	7700.0435902235
5	83255	27901.180995798766	7702.5824877457
5	83277	27906.054041052574	7695.3436417151
5	83282	27907.274063350079	7691.3175918447
5	83291	27911.037870523619	7694.492167986
5	83303	27916.168317329298	7682.1535384345
5	83316	27920.052237832033	7679.4538409171
5	83334	27927.276016981191	7681.4875757846
5	83343	27931.488885978569	7678.2334455355
5	83358	27936.036477588378	7682.3919871932
5	83367	27938.133856795763	7676.5645171373
5	83385	27948.953349509009	7687.2383255637
5	83424	27959.844204155051	7688.1373405678
5	83443	27963.648849566281	7682.3431926127
5	83517	27985.624922892398	7704.1559044651
5	83524	27986.698726661867	7701.8652403921
5	83529	27987.464953100495	7702.5999673724
5	83534	27991.076107418869	7704.6841924825
5	83542	27993.065515746697	7704.5482755466
5	83556	27995.084441620236	7701.1072515484
5	83565	28000.534278506461	7705.726928413
5	83570	28000.576706325277	7684.3933453404
5	83575	28001.176366274332	7684.4884253052
5	83586	28004.655866006132	7673.0600391877
5	83608	28017.574802348357	7683.7509038651
5	83621	28030.135299549009	7690.0262419907
5	83713	28062.586773804559	7722.1670862281
5	83728	28070.548146484416	7728.3274423051
5	83752	28077.985061898186	7709.2615641982
5	83795	28091.817761922618	7719.7048103878
5	83800	28093.174304632851	7715.6930536855
5	83807	28094.213841225591	7710.6705124991
5	83825	28097.403805583487	7703.0016901681
5	83830	28099.296859295757	7701.1433036422
5	83837	28104.636496392367	7701.5762765254
5	83847	28106.172389749563	7701.2700579061
5	83890	28117.605998808425	7707.5423476893
5	83897	28119.687611697803	7701.5343753102
5	83909	28122.184751849223	7692.3514975033
5	83940	28130.635936917204	7698.9506322423
5	83957	28139.658378514988	7699.6502080916
5	84035	28159.195502837101	7711.0689202537
5	84051	28168.184027553758	7715.970175374
5	84103	28177.928783612155	7722.2091678938
5	84115	28180.476749288047	7723.9114054525
5	84123	28182.941485758729	7703.0270571929
5	84144	28188.382203701312	7695.4895714146
5	84203	28211.141491830817	7717.6865444676
5	84210	28212.222443901375	7712.2237550423
5	84225	28221.462921721013	7719.4935648199
5	84291	28244.511540545763	7738.8927990095
5	84296	28244.60151245156	7732.5828524825
5	84301	28245.631156223537	7732.5052124865
5	84308	28255.690255040104	7737.3818225326
5	84381	28278.302832317664	7753.3074328377
5	84388	28278.939351742701	7748.3429173665
5	84397	28281.952956872619	7744.2619187857
5	84411	28286.58893469136	7747.2725511981
5	84416	28287.936188943119	7735.3027272837
5	84421	28291.326355154849	7734.9252784308
5	84426	28291.766066407317	7734.1769164699
5	84436	28294.055668523453	7736.3831304153
5	84456	28301.5385489331	7741.7347481841
5	84461	28302.466881441158	7729.7827292899
5	84470	28306.617966241686	7732.7393635198
5	84481	28312.076733314144	7724.7549164176
5	84492	28321.50383984217	7731.5662480257
5	84506	28326.566338500476	7734.1106007518
5	84513	28329.155994090934	7732.706821716
5	84534	28340.893614758462	7709.3239273846
5	84557	28348.17238993095	7715.3165227561
5	84562	28350.324949665528	7704.5827780989
5	84572	28352.522920624594	7693.7714242636
5	84577	28353.204177607914	7692.2580143198
5	84588	28357.883583016418	7694.2281952831
5	84651	28376.285734110354	7712.3609092394
5	84684	28392.195095288922	7723.2125429321
5	84704	28397.259962272563	7721.7403650771
5	84792	28428.04400839758	7743.431644046
5	84801	28431.742471054107	7737.6036888252
5	84816	28440.764402349028	7746.2239691858
5	84833	28451.431976836326	7750.7678037447
5	84956	28492.985556827582	7787.0785011755
5	84962	28493.019530921517	7776.1410493058
5	84968	28495.361711292654	7767.6105706363
5	84973	28495.939327570498	7767.3166156828
5	84988	28500.398202303344	7771.7522974892
5	85074	28527.042498843507	7797.395786788
5	85084	28527.420105134915	7794.7154021385
5	85094	28528.484922012175	7785.4391637135
5	85125	28542.439380232336	7797.1817458659
5	85159	28551.222387387798	7799.3278753309
5	85174	28555.889875526136	7801.6220690369
5	85179	28557.430781479785	7801.7565573461
5	85190	28565.889069046066	7802.4450880899
5	85212	28571.781408197722	7797.2063930185
5	85226	28573.795170544734	7797.68129673
5	85262	28591.654138521372	7811.5548210541
5	85283	28594.793653879624	7813.794881318
5	85298	28597.384821039636	7806.0588703897
5	85303	28597.594902202376	7783.0884209638
5	85315	28602.344439887913	7779.9098980957
5	85343	28606.918698678782	7781.3896797424
5	85350	28608.122746946793	7780.8663898379
5	85355	28609.839793045485	7765.7416931711
5	85372	28615.530283271056	7769.6171911497
5	85487	28641.080268119661	7790.9433087329
5	85496	28642.925710923984	7781.285063543
5	85503	28644.280086411125	7782.0106040435
5	85530	28648.669635851982	7779.2779499426
5	85540	28652.167474738939	7777.8956922367
5	85554	28662.066415932993	7780.7602687071
5	85563	28664.692274250797	7783.1721216004
5	85578	28671.643833682882	7759.1174686793
5	85589	28679.393631814037	7765.8672549097
5	85652	28698.524272097101	7783.3889943997
5	85670	28704.028808875557	7788.6093806404
5	85758	28736.518011197805	7817.9489894444
5	85763	28737.360667714124	7796.7419944777
5	85768	28737.575368194631	7793.2336190921
5	85773	28738.869704876045	7789.404569135
5	85778	28740.741651601354	7790.9448735485
5	85785	28743.916858278566	7793.2386011446
5	85792	28747.082108191922	7796.1219213393
5	85803	28747.896539320646	7792.2648096207
5	85814	28759.057943946738	7800.2074818785
5	85860	28768.823174312345	7805.2269383407
5	85867	28771.00108129257	7806.2093727982
5	85880	28774.312553744287	7806.2774343382
5	85887	28777.471297199889	7806.8759682824
5	85904	28785.233431228353	7809.7711027009
5	85975	28812.690655930813	7835.6597594367
5	85984	28816.900068718136	7831.0881488331
5	86003	28819.177594217085	7804.8863328117
5	86008	28821.696243823881	7803.3349614243
5	86017	28824.069974660865	7797.4696916702
5	86046	28834.078947047409	7800.0038052377
5	86054	28837.316657866394	7797.2383215483
5	86072	28844.713914672247	7803.4526152743
5	86077	28845.762062458337	7803.4162774256
5	86084	28852.733993409418	7806.5482424374
5	86091	28854.667956201947	7789.0842308433
5	86104	28858.515269641004	7790.9414368886
5	86111	28859.461734210939	7788.5639970625
5	86116	28862.745954400827	7766.1521104232
5	86121	28863.914506866387	7750.5774621582
5	86128	28866.446853226475	7745.9358516017
5	86133	28868.8746345902	7732.7970886805
5	86138	28870.036123872404	7724.1320640117
5	86143	28870.858648628937	7724.6625136286
5	86152	28877.406949050416	7730.6388979722
5	86165	28880.967369195495	7732.4489667609
5	86193	28897.901603787897	7747.0932925331
5	86236	28914.950590114755	7762.2306609549
5	86251	28919.099750949347	7762.9444273215
5	86296	28935.593570047826	7779.0094567555
5	86309	28944.33252581239	7785.9674418303
5	86372	28962.187638499632	7803.2957428167
5	86384	28968.3561223272	7784.7456477298
5	86452	28981.040953623509	7792.3185759937
5	86459	28982.905603883745	7785.1533335345
5	86516	29002.019024511256	7801.1441904589
5	86569	29027.176255685959	7811.8707344642
5	86601	29033.703544466227	7811.6910448101
5	86660	29053.065998419833	7830.8278505114
5	86668	29054.762627362142	7830.2456721077
5	86673	29054.858201264907	7826.456352873
5	86678	29055.967221378319	7821.6681509317
5	86683	29056.434845949334	7793.4090900541
5	86692	29060.030427361295	7790.9787500598
5	86800	29084.627671419023	7812.1004219419
5	86811	29089.144220077285	7811.8750658248
5	86894	29116.241104897564	7835.5273181494
5	86903	29120.366555738926	7839.1445071728
5	86916	29123.748928793351	7832.2622068392
5	86940	29129.628344153633	7832.8087635946
5	86959	29138.789185486157	7839.16877587
5	86999	29154.419081082689	7854.3728849481
5	87022	29164.721387709676	7848.3234516297
5	87050	29170.308763838346	7846.3210737973
5	87061	29174.4835727944	7826.8937182335
5	87066	29175.558819719787	7817.0555919061
5	87073	29176.586201760681	7817.0512096408
5	87092	29183.77420433211	7813.7283124901
5	87108	29189.137655263506	7817.5102230069
5	87113	29192.829515402885	7820.0498186783
5	87118	29195.212704714791	7821.3612575271
5	87125	29199.099002630877	7815.8330426308
5	87142	29207.301039082814	7806.060724786
5	87161	29211.562933860721	7810.2064266692
5	87192	29226.151192037395	7824.1791476815
5	87221	29235.328205172705	7825.3906969093
5	87239	29241.762394862108	7827.6642346563
5	87269	29260.565674635943	7844.9323826819
5	87289	29268.325550351699	7844.6103220088
5	87315	29277.686749349042	7853.2254206182
5	87337	29286.763989793246	7854.3753900049
5	87342	29289.398394461616	7845.9447651665
5	87353	29296.721441203834	7851.9755756508
5	87412	29311.580355684881	7864.1311874603
5	87423	29315.659699262576	7860.3373537803
5	87462	29328.911167550445	7866.7817063116
5	87472	29332.654430377214	7866.9612019715
5	87494	29345.919036198511	7866.4296508766
5	87615	29382.355921236558	7898.8783712731
5	87643	29393.939239450607	7909.3904825445
5	87653	29398.750340229896	7911.0894333904
5	87666	29402.585544301195	7892.9623517121
5	87689	29417.43021048628	7897.1460365049
5	87696	29418.746667191651	7896.2925517367
5	87703	29425.079821393043	7872.06724938
5	87714	29432.580613079176	7871.4215620324
5	87726	29435.317203086888	7864.8382085839
5	87731	29437.345049954854	7864.6405726961
5	87738	29439.811698272183	7866.049050106
5	87746	29441.802055040869	7857.3884178809
5	87757	29445.659340877809	7860.249523509
5	87792	29461.993890727523	7812.1935913593
5	87805	29463.292096731182	7810.0135961251
5	87833	29474.535445679255	7807.2004401185
5	87962	29516.988120542545	7848.668216536
5	87969	29522.746245635394	7853.1296962291
5	87984	29524.898591472114	7834.1554078843
5	87989	29525.219360798565	7824.156054023
5	87994	29525.713041252427	7823.9445326962
5	88003	29532.454466259553	7815.7129728792
5	88030	29539.58545826838	7819.8022778349
5	88035	29539.605031086407	7801.1731150707
5	88042	29544.069132789417	7796.5205331543
5	88056	29546.104449832817	7797.9328253248
5	88089	29557.444876685878	7809.1826944692
5	88108	29563.060271935546	7813.673489089
5	88228	29600.119991663774	7817.3795640172
5	88309	29628.287653448844	7841.3630968199
5	88316	29628.968165882842	7840.7367219478
5	88327	29629.744095221139	7833.5072535568
5	88334	29631.700610675663	7831.1841848609
5	88343	29637.428679530464	7836.1359278425
5	88357	29642.990577084346	7840.6991577422
5	88370	29647.485716494277	7836.2773243607
5	88377	29649.134658357069	7832.2056228425
5	88382	29650.554765465376	7832.7097525015
5	88389	29652.761355857367	7833.7020691806
5	88399	29653.917683295361	7834.6725712057
5	88410	29658.879478213522	7833.3675548808
5	88435	29667.760586268603	7834.2230508901
5	88445	29671.027896898185	7817.9141961916
5	88472	29679.268267425464	7822.2832698211
5	88479	29684.165961001889	7826.629265594
5	88486	29686.904113489462	7813.0143363511
5	88516	29697.406351523471	7822.9305854875
5	88526	29701.856047583574	7826.3705466576
5	88555	29717.836865269051	7838.7277430397
5	88633	29744.754362968072	7862.3224341246
5	88640	29747.062436856957	7857.3652643485
5	88645	29748.690601299192	7858.7981889406
5	88654	29750.903238131783	7860.8777765783
5	88663	29755.989808155247	7865.1042734669
5	88683	29758.58314321499	7866.1681797888
5	88690	29760.73953734422	7862.1911183894
5	88701	29762.361714597721	7863.3743467944
5	88714	29763.075324080062	7859.0995924707
5	88736	29772.839909027712	7868.3722160547
5	88805	29796.923780886557	7890.5898438459
5	88811	29797.653046796679	7874.7750059006
5	88819	29800.892587181359	7877.2918294224
5	88829	29804.801355805477	7872.8040278966
5	88838	29805.488455855292	7865.5926388176
5	88860	29814.180514578627	7868.5068251969
5	88869	29817.747142671079	7871.7480591597
5	88913	29830.686322680436	7881.143159223
5	88918	29833.613488322977	7883.038021717
5	88925	29836.310800446665	7884.8959284296
5	88932	29840.425440704001	7887.6814339455
5	88941	29843.688865649274	7888.6914012045
5	88970	29849.193319573692	7893.9223990233
5	89017	29864.017933254708	7905.6680925138
5	89024	29864.752319758612	7903.2511114673
5	89033	29866.541540358404	7898.26647453
5	89080	29892.269611391457	7920.3699784593
5	89129	29905.466704528599	7931.8079452436
5	89152	29909.012793146588	7923.7984749452
5	89167	29910.086044784192	7917.9601278074
5	89219	29923.686061528753	7923.6503944455
5	89224	29923.986450553985	7919.6427591427
5	89233	29929.16967870207	7921.6426396619
5	89265	29939.933463953519	7931.1237012374
5	89271	29943.413716943478	7931.6754052101
5	89279	29944.712099729729	7931.8359562101
5	89292	29950.36271580058	7935.8839135969
5	89398	29987.746041362795	7970.9197467431
5	89408	29989.562509742661	7959.4070150381
5	89425	29995.380774791512	7959.0537281773
5	89438	29998.869490988955	7962.3778004117

