version 2
run Third-n3-5-20191016-14:53:45-11020
attr configname Third-n3
attr datetime 20191016-14:53:45
attr experiment Third-n3
attr inifile omnetpp.ini
attr iterationvars ""
attr iterationvarsf ""
attr measurement ""
attr network org.omnetpp.queueing.Pizza
attr processid 11020
attr repetition 5
attr replication ""
attr resultdir results
attr runnumber 5
attr seedset 5
param **.PS.maxInventoriedPS 3
param **.U1.interArrivalTime exponential(4s)
param **.U2.interArrivalTime exponential(6s)
param **.PS.serviceTimeForInventoryU1 exponential(1.4s)
param **.PS.serviceTimeForInventoryU2 exponential(1.4s)
param **.PS.serviceTimeDirectU1 exponential(1.8s)
param **.PS.serviceTimeDirectU2 exponential(1.8s)
param **.PS.probabilityProducing 0.8
param **.CS.serviceTimeU1 exponential(2.3s)
param **.CS.serviceTimeU2 exponential(2.3s)

vector 0 Pizza.EntryQueueU1 queueLength:vector ETV
attr interpolationmode sample-hold
attr title "queue length, vector"
vector 1 Pizza.CS queueLength:vector ETV
attr interpolationmode sample-hold
attr title "queue length, vector"
vector 2 Pizza.EntryQueueU2 queueLength:vector ETV
attr interpolationmode sample-hold
attr title "queue length, vector"
vector 3 Pizza.sink lifeTime:vector ETV
attr interpolationmode none
attr title "lifetime of arrived jobs, vector"
attr unit s
vector 4 Pizza.sink lifeTimeU2:vector ETV
attr interpolationmode none
attr title "lifetime of arrived jobs, vector"
attr unit s
0	0	0	0
0	5	1.004079910768	1
0	7	1.930391765611	2
0	11	3.738964224312	3
0	13	4.115420356294	4
0	14	5.085741223811	3
0	23	7.676024802913	2
0	29	7.89978038264	3
0	30	8.314930500473	2
0	35	8.585287280659	1
0	39	8.589153753283	2
0	44	9.502555838954	3
0	45	9.969379227906	2
0	53	12.076440836646	1
0	59	12.46917779268	2
0	62	12.989191816918	1
0	73	19.640043373559	2
0	75	20.019698663254	3
0	76	20.281128207579	2
0	81	20.337723940594	1
0	85	20.85476154668	2
0	89	21.770178580812	3
0	93	25.769795795403	2
0	99	27.436332807403	1
0	105	27.817873462809	2
0	107	27.840879740846	3
0	109	29.040425215129	4
0	112	34.140289823993	5
0	113	37.193446155263	4
0	118	37.706001958623	3
0	128	38.539451327749	4
0	129	40.44971164087	3
0	134	40.603079104846	2
0	138	41.075104947894	3
0	142	41.855497684388	4
0	143	42.480415764422	3
0	150	44.467400454399	2
0	155	44.728729178552	1
0	159	45.018154026842	2
0	163	45.490828619194	3
0	164	45.546932990093	2
0	170	50.028390220785	1
0	178	52.348709110245	0
0	205	58.890788893496	1
0	206	62.82789566082	0
0	223	66.34953510311	1
0	225	67.377294073953	2
0	229	70.880766863172	3
0	230	71.887348243311	2
0	235	72.091924057148	1
0	243	76.358540282505	0
0	269	82.087970362604	1
0	274	84.820549289688	0
0	283	89.675917828452	1
0	285	89.758326444072	2
0	289	91.033350052225	1
0	295	92.421224680322	2
0	301	94.751231575343	1
0	308	96.371262691801	2
0	311	97.351198433193	3
0	312	97.54303625124	2
0	320	100.765152165453	3
0	328	104.606597322505	2
0	333	107.093578682898	1
0	338	107.408735662957	0
0	349	108.48823608317	1
0	351	110.982569113655	0
0	400	124.929298904272	1
0	402	125.359588490155	2
0	404	126.10611217953	3
0	406	127.792316615301	4
0	407	128.639923981307	3
0	413	128.661681408457	4
0	418	134.58670054417	3
0	425	135.310621925858	4
0	427	138.695584280974	5
0	431	140.422986283944	6
0	434	142.297016560772	5
0	439	142.73379674302	4
0	445	142.995345914113	3
0	452	145.790585654965	4
0	453	145.812677262775	3
0	457	146.898129512749	4
0	459	147.024629109547	5
0	463	148.966003873938	6
0	464	149.26148337998	5
0	470	152.39797518253	6
0	473	153.579864508807	5
0	477	154.857875270095	6
0	483	160.001137343426	7
0	487	162.747377117089	8
0	488	162.857840741421	7
0	493	163.275271066642	6
0	499	163.696047856762	7
0	501	164.158477036251	8
0	505	166.518338128761	7
0	510	167.400788150359	6
0	515	168.446494314132	5
0	525	171.724811866562	4
0	531	172.062310036036	3
0	539	174.67714192992	2
0	546	175.95319174227	1
0	551	177.783258108103	0
0	572	184.304753970815	1
0	573	184.881896211606	0
0	609	190.313945862947	1
0	612	191.358992334003	0
0	619	192.957557017285	1
0	620	196.51577532911	0
0	627	198.203659404815	1
0	628	198.72133907063	0
0	638	201.052776291725	1
0	639	202.426766729406	0
0	652	206.937212255439	1
0	654	209.869978311262	0
0	662	214.957980831804	1
0	664	215.954002536566	2
0	666	216.626470767532	3
0	668	216.714428747788	4
0	669	218.601948725008	3
0	676	218.805204909022	4
0	677	219.150132783558	3
0	683	220.058726685764	4
0	685	220.304625276999	5
0	687	222.241783626677	4
0	694	223.8024460924	5
0	695	224.349213016438	4
0	703	226.296838096627	3
0	709	229.419570600121	2
0	715	233.107362090876	1
0	721	233.725480945444	0
0	738	236.82745728783	1
0	740	237.814548041933	2
0	741	240.666294425766	1
0	748	242.636354979391	0
0	771	246.394047961304	1
0	772	247.5311744192	0
0	792	252.947344659589	1
0	795	254.558537179206	0
0	801	255.165368215853	1
0	802	256.599135230052	0
0	814	259.117530585787	1
0	816	260.445173460239	0
0	827	260.841767526548	1
0	828	260.949708115988	0
0	849	265.263269225143	1
0	852	265.474316218129	0
0	864	266.693071357762	1
0	872	269.166555525322	2
0	873	270.904660142972	1
0	878	271.074216226684	0
0	904	278.943958655322	1
0	905	279.400236235733	0
0	919	282.599426493361	1
0	922	285.640040919862	0
0	944	290.438195183895	1
0	945	290.986613280765	0
0	978	304.546014017597	1
0	982	308.781627836854	2
0	983	309.30694326056	1
0	988	310.507797845355	0
0	1007	314.608033996419	1
0	1010	315.595540088748	0
0	1026	320.33513760762	1
0	1027	320.715662371886	0
0	1045	327.765545704743	1
0	1048	329.348667280245	0
0	1058	335.587337830149	1
0	1059	335.754824063729	0
0	1101	345.680108400406	1
0	1102	345.835342561121	0
0	1124	354.718194112343	1
0	1125	356.038071062109	0
0	1165	377.757127615665	1
0	1167	384.280001685205	2
0	1168	384.597270780008	1
0	1173	385.132288054843	0
0	1181	386.318034310171	1
0	1182	387.06185898901	0
0	1207	389.716889234743	1
0	1212	390.764914236929	0
0	1222	391.389925326689	1
0	1226	393.076406307459	2
0	1227	395.148506689457	1
0	1234	395.740426247175	0
0	1242	399.943203938907	1
0	1243	399.961557770427	0
0	1258	404.620964033178	1
0	1259	405.162110585514	0
0	1271	407.155573507595	1
0	1272	407.402324833517	0
0	1304	417.362435998471	1
0	1308	419.558892106027	2
0	1310	420.509520035828	3
0	1311	420.693843430631	2
0	1318	421.745278734703	3
0	1320	424.894196444331	2
0	1332	433.440104833954	1
0	1337	435.702270912329	0
0	1343	436.330723288063	1
0	1345	437.019318847913	2
0	1348	437.802167735684	3
0	1354	440.70785762489	2
0	1359	440.792240834546	1
0	1368	443.752237550781	2
0	1370	444.336052729625	3
0	1372	445.458487823068	4
0	1376	447.66359873307	5
0	1377	449.159521934707	4
0	1382	449.379374515	3
0	1395	452.587101365603	2
0	1400	452.596370122607	1
0	1411	457.807955089494	0
0	1417	458.341225103558	1
0	1418	459.831230122151	0
0	1438	462.642900711548	1
0	1439	463.748009461229	0
0	1446	465.477626553789	1
0	1447	467.325972323056	0
0	1459	470.852266144784	1
0	1461	471.45969334351	2
0	1465	472.634126155392	3
0	1467	477.248130537149	2
0	1472	477.785589903286	1
0	1478	479.465259852162	0
0	1490	482.194718206476	1
0	1491	484.840152560696	0
0	1498	485.207286767096	1
0	1499	486.56923493896	0
0	1526	490.012078290129	1
0	1528	490.349158671416	0
0	1547	495.830187591861	1
0	1549	495.864329004664	2
0	1552	496.550847625026	3
0	1553	496.70228516989	2
0	1559	497.392329357596	1
0	1565	500.294041840371	0
0	1579	503.140051178801	1
0	1581	503.822993582302	2
0	1582	506.405072883683	1
0	1587	506.596113521725	0
0	1618	524.499967767958	1
0	1624	527.20583844699	2
0	1625	527.572971811733	1
0	1633	529.682478025011	2
0	1635	530.025232875694	3
0	1636	530.882512002838	2
0	1641	531.443234848565	1
0	1649	532.362236481602	0
0	1673	542.616206892648	1
0	1676	545.413054821336	0
0	1690	549.620332100791	1
0	1692	549.67934040746	2
0	1693	551.466034510174	1
0	1698	551.546357728329	0
0	1722	565.62386498748	1
0	1724	565.642721847609	2
0	1726	567.376819936593	3
0	1728	567.825697562121	4
0	1729	568.009726216853	3
0	1736	570.027045933989	2
0	1743	570.443322989905	1
0	1748	570.507337201412	0
0	1756	572.62988464374	1
0	1758	572.801465509221	2
0	1761	574.465704529862	3
0	1762	577.124364313603	2
0	1768	577.152038874954	3
0	1771	578.804065680058	4
0	1772	579.893504881654	3
0	1780	580.706918850833	2
0	1786	581.214723310687	3
0	1787	581.478488646007	2
0	1792	581.64658302505	1
0	1798	583.222411190071	2
0	1799	584.826139468345	1
0	1807	587.838385002192	0
0	1834	592.5534472594	1
0	1839	602.219106317049	0
0	1845	602.871028206371	1
0	1850	603.828181526853	2
0	1852	605.942960203672	3
0	1853	608.408219634438	2
0	1859	608.994481621626	3
0	1860	609.354019206961	2
0	1866	609.836725543501	1
0	1871	610.561877927494	0
0	1895	615.308133403893	1
0	1899	616.488560860021	2
0	1901	617.823197977499	3
0	1906	626.378987560423	2
0	1912	626.393589664574	1
0	1918	627.456342057802	2
0	1925	632.88824743502	3
0	1926	632.953507122531	2
0	1931	633.654847860414	1
0	1936	634.377590823454	0
0	1956	639.874875352704	1
0	1957	641.021056097355	0
0	1972	643.787759641954	1
0	1977	648.969675564865	0
0	2003	653.648856687046	1
0	2008	659.038425688783	0
0	2026	665.191948029474	1
0	2029	666.75808904201	0
0	2042	668.887496457888	1
0	2047	670.831848087579	2
0	2051	671.952161020586	3
0	2052	674.112668979021	2
0	2058	674.257132049371	3
0	2060	676.756835021857	2
0	2065	678.433574846169	1
0	2073	681.888938989672	2
0	2075	682.010498746455	3
0	2083	684.219213424549	4
0	2085	687.054380904882	5
0	2086	689.049853517395	4
0	2094	692.820578981694	5
0	2096	692.99061945578	6
0	2097	696.850793274641	5
0	2106	698.965754309312	6
0	2115	706.284984703812	5
0	2122	707.027114331231	6
0	2123	708.484622366636	5
0	2129	708.770215739032	6
0	2131	709.772771827316	7
0	2135	712.943407624849	6
0	2143	713.46087359094	7
0	2144	713.840264725255	6
0	2154	722.433981696009	5
0	2160	722.984634553779	6
0	2161	723.83104824259	5
0	2167	725.466444915273	6
0	2169	727.526956710245	5
0	2179	732.573894986835	4
0	2184	733.137684421351	3
0	2189	733.250594466861	2
0	2195	733.594085421253	3
0	2196	735.455330144964	2
0	2205	738.048975497316	3
0	2206	738.297335973852	2
0	2213	741.02816426443	3
0	2214	741.832856818289	2
0	2220	742.141602242012	3
0	2222	742.647815627839	4
0	2223	743.292692984497	3
0	2228	743.789954654786	2
0	2233	744.054210123435	1
0	2237	744.868705664517	2
0	2244	747.61950565564	1
0	2250	748.346894549363	0
0	2284	752.562754595022	1
0	2289	753.266687114822	0
0	2295	753.275200527654	1
0	2299	754.993736924301	0
0	2308	757.392893082077	1
0	2310	757.443869079934	2
0	2312	759.461239889496	3
0	2314	759.622502611204	2
0	2328	766.369919370105	1
0	2334	766.547862522663	2
0	2336	768.228242073708	3
0	2337	768.611795817689	2
0	2346	769.497073849875	3
0	2351	772.884825405622	2
0	2356	773.808757047469	1
0	2361	774.171659400528	0
0	2376	779.109849866215	1
0	2378	779.899910759495	2
0	2379	779.922110430169	1
0	2387	784.808833109902	0
0	2393	785.918216344695	1
0	2394	785.96092660749	0
0	2406	788.955961537172	1
0	2409	791.313862441592	2
0	2410	792.598785067621	1
0	2416	793.234058011475	2
0	2417	794.360400998861	1
0	2424	794.969532914791	0
0	2433	795.456750477881	1
0	2437	796.125903571617	0
0	2444	797.269653284083	1
0	2445	797.629661983648	0
0	2458	805.690549099676	1
0	2460	805.711986123612	2
0	2461	807.061612272634	1
0	2467	807.823473549297	2
0	2468	807.844338839766	1
0	2473	807.939659577677	0
0	2495	814.390906042818	1
0	2496	815.248952927344	0
0	2519	826.671589849073	1
0	2520	827.876879411687	0
0	2529	830.700328095678	1
0	2531	831.160856382175	0
0	2545	835.025901948019	1
0	2547	835.926832937685	2
0	2552	840.471787989369	3
0	2555	843.481632237347	2
0	2562	843.705530995972	3
0	2563	843.861117448721	2
0	2569	845.930984734736	1
0	2575	846.067257071695	2
0	2577	846.54305503613	3
0	2580	849.913806905284	2
0	2588	851.107488808125	3
0	2591	852.88761919836	2
0	2597	854.455891653446	1
0	2604	854.713482467063	0
0	2610	855.909251371441	1
0	2612	856.31594599209	2
0	2614	856.968458718313	3
0	2615	857.207837190101	2
0	2623	861.656293228831	3
0	2624	864.09015130493	2
0	2630	864.697521213299	3
0	2636	871.994095108854	2
0	2641	872.547955006317	1
0	2648	874.430912472516	0
0	2665	877.866756001095	1
0	2667	881.430624169478	2
0	2669	881.487104521766	3
0	2671	883.044111212101	4
0	2674	886.414548324454	3
0	2682	890.035183008399	2
0	2690	891.87484623623	1
0	2696	892.12601840586	2
0	2702	895.491450476672	1
0	2709	897.737500712062	2
0	2710	897.937668851841	1
0	2716	898.088602587716	2
0	2718	898.106427615588	3
0	2720	898.493127642882	4
0	2722	902.175816683184	3
0	2730	904.503919420617	4
0	2731	904.957820017924	3
0	2736	905.410317085755	2
0	2744	910.539219556419	3
0	2745	910.600681147499	2
0	2751	911.203860071912	1
0	2758	913.616831138659	2
0	2759	914.222955188163	1
0	2765	917.058561818682	0
0	2777	920.025288643306	1
0	2778	922.147118249033	0
0	2791	924.850317775608	1
0	2793	926.165241611786	0
0	2805	931.064197901925	1
0	2807	932.825900279892	2
0	2811	936.005641318858	3
0	2814	937.622921541223	2
0	2820	939.264030360443	1
0	2826	940.805299102693	2
0	2827	941.29203074422	1
0	2832	941.455529328179	0
0	2861	948.035344139276	1
0	2862	949.133171782127	0
0	2868	951.505681485874	1
0	2869	952.866645995083	0
0	2889	958.374854019419	1
0	2891	958.876902775343	2
0	2899	961.250879466019	1
0	2904	961.390813570383	0
0	2913	963.292362145428	1
0	2915	963.523025630474	2
0	2919	964.416471969804	3
0	2920	964.562542785908	2
0	2929	966.981252534145	3
0	2930	968.081267898338	2
0	2936	969.818604177397	3
0	2937	970.118507167467	2
0	2942	971.464432203889	1
0	2948	973.408707126796	0
0	2968	977.10904751319	1
0	2973	979.923502072266	0
0	2997	988.076875700192	1
0	3001	990.480985036821	2
0	3007	997.335135818198	3
0	3009	997.507817936663	4
0	3010	1000.177710282853	3
0	3016	1000.29455403536	4
0	3018	1002.596572525072	3
0	3023	1002.842746661274	2
0	3028	1003.57433389792	1
0	3033	1004.09884037604	0
0	3039	1004.43448070179	1
0	3045	1009.364072917175	2
0	3047	1010.685019308924	1
0	3056	1013.348553251144	0
0	3062	1013.378158434272	1
0	3064	1017.359614101778	0
0	3070	1018.839124126802	1
0	3071	1019.675843362201	0
0	3101	1023.339895056849	1
0	3102	1024.399809604561	0
0	3111	1026.309759144875	1
0	3112	1027.295902849877	0
0	3125	1029.125980380623	1
0	3130	1036.59681280958	0
0	3142	1038.119188157322	1
0	3143	1038.245646808199	0
0	3154	1041.651592816773	1
0	3155	1042.504042789869	0
0	3162	1042.977004434504	1
0	3164	1044.461030305888	2
0	3165	1045.353809101486	1
0	3171	1045.528197208974	2
0	3174	1048.822118693409	3
0	3177	1049.422904557189	2
0	3185	1049.580321816291	3
0	3188	1050.822733492453	4
0	3189	1054.357077577277	3
0	3195	1057.49635111242	2
0	3200	1057.992613572579	1
0	3206	1057.995888355207	2
0	3207	1058.019115971834	1
0	3215	1061.137804778973	0
0	3228	1061.841836582743	1
0	3230	1062.9908064011	0
0	3242	1066.289432510594	1
0	3247	1069.490720770456	2
0	3248	1069.842334039837	1
0	3253	1069.889057370919	0
0	3272	1075.422511297945	1
0	3277	1081.337421921627	0
0	3284	1081.757615212681	1
0	3286	1083.703986777433	2
0	3288	1084.151560928768	3
0	3290	1085.129390240192	4
0	3291	1085.682178104524	3
0	3299	1088.622615407184	4
0	3300	1089.636564619493	3
0	3312	1095.750199614497	4
0	3314	1096.278541686861	5
0	3316	1096.559276995226	6
0	3319	1099.307405991558	5
0	3325	1100.572882709039	4
0	3330	1101.353881769072	3
0	3335	1101.506393201255	2
0	3340	1101.639474646127	1
0	3346	1102.676907179541	2
0	3354	1109.630233393406	3
0	3364	1113.922299865459	4
0	3367	1116.868684048332	3
0	3375	1121.120379797421	2
0	3382	1124.705473477146	3
0	3384	1125.37595526582	4
0	3385	1125.498236118411	3
0	3395	1127.57157562356	4
0	3398	1131.442337610558	3
0	3405	1133.772517394962	2
0	3410	1133.791913996887	1
0	3420	1135.297940844771	0
0	3426	1135.530814375986	1
0	3428	1135.755984874024	2
0	3429	1135.99612948103	1
0	3436	1139.132383444407	2
0	3437	1141.739186174493	1
0	3444	1144.260094792599	0
0	3466	1147.783943037954	1
0	3467	1151.627664923961	0
0	3478	1152.977245719416	1
0	3482	1156.432677613288	2
0	3485	1157.637516040526	3
0	3489	1163.416677521073	4
0	3490	1164.520683947501	3
0	3496	1164.78203994675	4
0	3498	1165.653746479064	3
0	3506	1169.705803567458	2
0	3511	1170.325034584893	1
0	3516	1170.90246297129	0
0	3522	1173.192385100795	1
0	3526	1175.164633309297	0
0	3539	1177.077579460784	1
0	3542	1177.435315076986	0
0	3579	1191.005702827958	1
0	3582	1198.774955589058	0
0	3588	1199.828235214394	1
0	3590	1200.036943026324	0
0	3612	1207.21862071355	1
0	3615	1207.858076645007	0
0	3621	1208.189592911993	1
0	3624	1210.231320114452	2
0	3626	1210.865536198049	3
0	3628	1211.143008700386	4
0	3629	1211.248376490349	3
0	3634	1211.724985843568	2
0	3645	1216.937474374186	3
0	3646	1217.815578966425	2
0	3652	1218.416395622954	3
0	3658	1225.132138627489	2
0	3666	1227.330428064876	3
0	3669	1228.722137961958	2
0	3675	1229.91628732884	1
0	3680	1230.502625008256	0
0	3703	1235.528164351559	1
0	3706	1239.79598750652	0
0	3725	1245.042135460328	1
0	3726	1245.883376188837	0
0	3735	1250.450822067551	1
0	3736	1251.511974846776	0
0	3744	1252.275308699032	1
0	3745	1253.12196660087	0
0	3751	1253.584042169279	1
0	3753	1255.00504944863	0
0	3770	1263.847117483653	1
0	3773	1264.675325774465	0
0	3782	1268.645547613893	1
0	3785	1271.407415695395	0
0	3801	1275.052450662199	1
0	3807	1277.262176967194	2
0	3809	1280.125296774886	1
0	3815	1280.188384550624	2
0	3816	1280.661586346439	1
0	3823	1281.095047697874	0
0	3834	1281.24116138091	1
0	3835	1281.644950962216	0
0	3846	1284.049852425335	1
0	3849	1285.565439751017	0
0	3873	1296.791123053611	1
0	3874	1297.437268867167	0
0	3895	1302.131334456514	1
0	3898	1304.60092272396	0
0	3907	1305.866421151822	1
0	3911	1307.405355916176	2
0	3921	1317.167348302488	3
0	3923	1318.941616498244	4
0	3924	1319.036309829066	3
0	3933	1321.553236773893	2
0	3942	1324.99348006557	1
0	3954	1331.89854755705	2
0	3960	1340.021062750045	3
0	3968	1344.854201629307	4
0	3969	1345.48048883932	3
0	3974	1346.0228240789	2
0	3979	1346.637054430423	1
0	3986	1355.799685048036	0
0	3993	1358.77379825	1
0	3994	1359.765529353691	0
0	4036	1375.646735696802	1
0	4039	1377.966057951289	0
0	4047	1382.985833058705	1
0	4048	1383.429597923627	0
0	4087	1393.01842696886	1
0	4088	1393.103149549985	0
0	4097	1394.143501722249	1
0	4102	1397.055126895612	2
0	4103	1397.756115524223	1
0	4110	1399.290650707987	2
0	4113	1402.284707304515	3
0	4116	1405.140783040567	2
0	4125	1405.762398536531	3
0	4126	1405.972217317734	2
0	4131	1407.643731256911	1
0	4137	1407.722685336031	2
0	4144	1411.65735442969	1
0	4149	1411.961298755551	0
0	4161	1413.856352564486	1
0	4162	1415.09058057122	0
0	4190	1430.060246091912	1
0	4192	1431.551580683836	0
0	4247	1454.56362149836	1
0	4248	1454.799115458981	0
0	4277	1460.169758552942	1
0	4280	1460.575897284225	0
0	4289	1463.959957104744	1
0	4292	1465.383593997653	0
0	4300	1466.42705957755	1
0	4301	1467.021464693017	0
0	4323	1480.081537127018	1
0	4324	1480.349848342527	0
0	4342	1490.467357006998	1
0	4348	1493.83426978638	2
0	4349	1496.210093343693	1
0	4360	1499.281537988046	2
0	4361	1500.513543932642	1
0	4366	1501.133274394396	0
0	4380	1504.581430925249	1
0	4382	1507.641889498397	2
0	4383	1508.197435748837	1
0	4388	1508.802008343488	0
0	4401	1514.336389932509	1
0	4404	1517.435872505811	0
0	4415	1518.045088130854	1
0	4418	1519.871481905957	2
0	4423	1524.990767709364	3
0	4424	1526.463239311431	2
0	4432	1527.200080044892	1
0	4437	1528.268114793996	0
0	4447	1531.534210580371	1
0	4448	1531.999074856561	0
0	4480	1545.536846401549	1
0	4481	1545.657020589235	0
0	4508	1562.090980765574	1
0	4514	1563.387769791936	2
0	4515	1563.957029971151	1
0	4522	1565.869327994886	0
0	4539	1566.850102836535	1
0	4540	1567.120402666715	0
0	4552	1572.646089821305	1
0	4553	1576.163238418484	0
0	4560	1576.617052971651	1
0	4561	1577.082273423593	0
0	4574	1580.937127475054	1
0	4577	1584.781177877447	0
0	4594	1586.661605605773	1
0	4596	1586.982152831819	2
0	4599	1588.679280000066	1
0	4605	1588.889521066214	0
0	4614	1592.010683749375	1
0	4617	1593.51755104538	0
0	4638	1597.507264728215	1
0	4640	1598.871600289629	2
0	4643	1600.816818832091	1
0	4649	1601.384678767169	2
0	4653	1606.87280388883	3
0	4655	1607.745096194022	4
0	4657	1608.848023391572	5
0	4658	1610.068919460213	4
0	4669	1615.721863229617	3
0	4674	1617.807009725939	2
0	4680	1619.603115056412	1
0	4685	1619.718650910116	0
0	4691	1620.718353373608	1
0	4692	1621.043603852166	0
0	4708	1629.448291866024	1
0	4710	1634.093735208922	2
0	4711	1634.337549328584	1
0	4716	1634.549877606499	0
0	4727	1637.582804880367	1
0	4728	1637.89147145732	0
0	4744	1643.412186747649	1
0	4747	1645.573193437989	0
0	4764	1648.742458290426	1
0	4765	1650.026837357291	0
0	4772	1652.624625209672	1
0	4773	1653.281995226809	0
0	4779	1654.321913473639	1
0	4780	1654.624577963863	0
0	4788	1658.081168563719	1
0	4789	1658.31400185867	0
0	4795	1658.581341741754	1
0	4799	1662.412609808069	0
0	4806	1662.779037634948	1
0	4809	1664.208803794383	0
0	4815	1664.22746961625	1
0	4816	1664.679705948666	0
0	4823	1667.173458048112	1
0	4825	1667.988472910731	2
0	4827	1668.491960256397	3
0	4828	1669.910211861477	2
0	4834	1673.200412962009	1
0	4841	1675.631423902922	0
0	4847	1678.35364696155	1
0	4852	1680.654868454108	2
0	4853	1680.656709038172	1
0	4859	1681.008070057933	2
0	4865	1684.12564595999	3
0	4869	1690.492646191842	2
0	4875	1690.953954475594	3
0	4876	1691.628119262994	2
0	4882	1692.177756205647	1
0	4888	1698.976894424395	0
0	4911	1702.198208295236	1
0	4913	1703.490742974515	0
0	4932	1706.957163580116	1
0	4935	1707.974789464294	0
0	4947	1714.765791489992	1
0	4950	1715.092194932723	0
0	4965	1718.928294412308	1
0	4974	1722.439814727308	0
0	4991	1724.062500336619	1
0	4993	1724.21463813028	2
0	4994	1726.560429145007	1
0	5003	1728.541369993112	0
0	5009	1728.646294874305	1
0	5013	1730.131425555326	0
0	5066	1746.000690681798	1
0	5068	1747.73711683651	2
0	5072	1749.265822666555	3
0	5076	1751.506631261722	4
0	5078	1752.862694805235	5
0	5080	1753.110561338092	6
0	5081	1754.498248498285	5
0	5087	1755.099237167386	6
0	5089	1756.89473936126	5
0	5094	1757.385488642035	4
0	5100	1758.332634854458	3
0	5107	1761.024497249621	2
0	5116	1763.992515588624	3
0	5121	1765.126275285836	4
0	5122	1765.715150649598	3
0	5128	1766.284375394984	4
0	5129	1766.814211461449	3
0	5134	1767.187397627656	2
0	5142	1770.517420676053	1
0	5154	1773.152810745835	2
0	5155	1774.503172712143	1
0	5160	1775.912862445624	0
0	5177	1781.687209989488	1
0	5179	1783.41841499105	2
0	5180	1783.800347890453	1
0	5187	1785.331850591146	0
0	5194	1785.533438108607	1
0	5195	1788.963601501969	0
0	5226	1798.830694044077	1
0	5227	1798.990289242484	0
0	5234	1799.84788485791	1
0	5236	1801.297675491968	2
0	5238	1801.866945351478	3
0	5239	1803.837386492744	2
0	5244	1804.7985902892	1
0	5255	1808.59165476449	0
0	5259	1809.397633718837	1
0	5266	1813.683767922245	2
0	5269	1814.515469875072	1
0	5273	1817.41465966518	2
0	5276	1818.145678693217	1
0	5281	1819.409745638934	0
0	5287	1820.010113913695	1
0	5288	1820.769104539059	0
0	5312	1831.712503622173	1
0	5316	1833.583745937146	2
0	5319	1835.160180769236	1
0	5332	1841.895107045727	2
0	5333	1842.012723322917	1
0	5338	1842.031885300454	0
0	5360	1847.114602002353	1
0	5362	1851.168323677272	2
0	5364	1854.728784772902	3
0	5365	1855.384913443913	2
0	5372	1856.194061617865	3
0	5373	1856.545362332296	2
0	5379	1856.591763956385	3
0	5381	1857.44969116283	2
0	5392	1860.455305843094	3
0	5393	1860.728468583545	2
0	5398	1861.252597898495	1
0	5404	1864.241287456254	0
0	5415	1866.974024302742	1
0	5418	1870.276516530715	0
0	5434	1874.362571463426	1
0	5436	1877.65872929775	2
0	5439	1879.517849530449	1
0	5444	1880.102190605733	0
0	5457	1884.632576754637	1
0	5458	1884.732336841887	0
0	5472	1886.517254417741	1
0	5475	1889.664423871711	0
0	5481	1889.773531694032	1
0	5485	1894.177339373452	0
0	5506	1897.413829677304	1
0	5512	1899.984270213837	2
0	5518	1902.624283931009	3
0	5520	1903.378364595193	4
0	5525	1904.005197884246	3
0	5530	1904.356562044057	2
0	5537	1905.637258720283	1
0	5543	1906.304835687491	0
0	5558	1911.023629814066	1
0	5564	1912.616117901012	0
0	5580	1915.930627203947	1
0	5582	1916.167773909585	2
0	5584	1916.343281806231	3
0	5586	1917.31694018741	4
0	5588	1917.63009664051	5
0	5592	1925.905799810442	4
0	5599	1929.476589520008	3
0	5610	1930.557950212501	4
0	5615	1931.710670896251	5
0	5618	1932.807497200946	4
0	5623	1933.754942437727	3
0	5630	1935.108004164468	2
0	5634	1935.163907206161	3
0	5640	1947.821003462908	2
0	5646	1948.182738972112	1
0	5653	1948.972304278734	0
0	5691	1954.816770129502	1
0	5693	1955.195406165772	2
0	5695	1955.825668089008	3
0	5697	1956.354139461083	4
0	5702	1959.537409410963	3
0	5712	1962.320041370291	4
0	5713	1962.67137994693	3
0	5720	1963.157732976816	2
0	5726	1964.064441398006	1
0	5733	1964.655726179294	0
0	5783	1982.576354578837	1
0	5784	1982.715187239138	0
0	5791	1982.811133621325	1
0	5792	1982.981502695316	0
0	5831	1998.394980496584	1
0	5834	2000.194197915893	0
0	5858	2006.79019045516	1
0	5859	2007.138336398171	0
0	5872	2008.887258552015	1
0	5873	2012.999960973635	0
0	5886	2017.420882722088	1
0	5888	2017.906911451124	0
0	5904	2020.546761784037	1
0	5908	2021.538929629342	2
0	5911	2023.882805077251	1
0	5916	2023.92979067241	0
0	5926	2024.358458095107	1
0	5932	2036.696181618575	0
0	5942	2039.574938810466	1
0	5946	2041.291003887873	2
0	5948	2043.902043774101	3
0	5949	2045.512339361918	2
0	5956	2046.597749791047	3
0	5958	2047.641257646295	4
0	5959	2047.926389405881	3
0	5965	2052.067272065427	2
0	5971	2053.660206375268	1
0	5980	2053.770431488772	2
0	5982	2054.143411164389	3
0	5983	2054.434812514098	2
0	5993	2056.430933688146	1
0	6001	2060.775410802673	2
0	6004	2065.516304295869	1
0	6011	2066.566263236529	2
0	6017	2068.698722769246	3
0	6018	2069.052537690822	2
0	6024	2069.801112448809	3
0	6027	2070.461660263309	4
0	6029	2071.528927253206	5
0	6031	2072.19420161629	6
0	6032	2072.259628934511	5
0	6040	2072.687444906849	6
0	6043	2079.186293920722	5
0	6049	2082.964368661893	4
0	6061	2086.32647279148	3
0	6066	2086.495544062296	2
0	6072	2089.512361905825	3
0	6075	2092.189229382322	2
0	6082	2093.905353322583	1
0	6093	2100.839099866055	2
0	6094	2101.309233030609	1
0	6100	2101.626536390027	2
0	6103	2102.485900191689	3
0	6104	2105.284864666059	2
0	6110	2105.289689855323	3
0	6115	2108.736127799416	4
0	6116	2109.485597618842	3
0	6122	2111.967363283827	2
0	6129	2112.611637401324	3
0	6130	2113.083236862772	2
0	6144	2123.209764288285	1
0	6150	2125.094710756475	2
0	6152	2125.8210961261	1
0	6157	2126.907410749368	0
0	6189	2134.263345628954	1
0	6192	2135.65054256694	0
0	6205	2139.786990661893	1
0	6209	2141.763427508445	2
0	6210	2141.949359888392	1
0	6215	2142.358162145232	0
0	6230	2145.503049523662	1
0	6234	2147.027345696158	2
0	6236	2147.581195460616	3
0	6239	2148.654854350348	2
0	6244	2149.646855902407	1
0	6251	2151.233234915092	0
0	6257	2151.398953066641	1
0	6259	2153.094415314981	0
0	6267	2153.190863165112	1
0	6270	2155.302529666798	0
0	6296	2163.098303229678	1
0	6298	2164.59310743872	2
0	6300	2165.777042039625	3
0	6301	2166.374453711262	2
0	6307	2166.527314238333	1
0	6312	2167.252307518698	0
0	6349	2174.574263333971	1
0	6351	2175.645693072636	2
0	6354	2177.452235303015	1
0	6359	2177.781508862177	0
0	6365	2177.854074770947	1
0	6367	2178.131662945711	2
0	6370	2180.099565419467	1
0	6375	2180.197413063891	0
0	6386	2184.564653194861	1
0	6389	2185.369849916126	0
0	6395	2185.623680134136	1
0	6398	2186.589285193432	0
0	6402	2186.877035324754	1
0	6406	2187.448720529112	2
0	6410	2188.856606878081	1
0	6418	2190.519771544116	0
0	6441	2197.674282919251	1
0	6444	2199.048255094017	0
0	6452	2200.094218692167	1
0	6453	2200.494342499919	0
0	6466	2211.590009366664	1
0	6469	2216.671979829239	0
0	6479	2219.068604819411	1
0	6482	2220.398674462788	0
0	6488	2222.457897125398	1
0	6491	2222.623540625816	2
0	6493	2223.25114830327	1
0	6504	2225.641091768245	0
0	6524	2230.404348509666	1
0	6532	2233.798665695246	0
0	6547	2235.569455107856	1
0	6550	2236.836373756208	0
0	6556	2236.921171808505	1
0	6558	2236.923133311979	2
0	6560	2237.291613070569	3
0	6562	2238.994101244038	2
0	6568	2239.84719155313	1
0	6574	2241.449682041296	2
0	6575	2242.2875648531	1
0	6584	2244.98291183728	0
0	6597	2247.257449151986	1
0	6598	2248.007542836197	0
0	6612	2258.426483080391	1
0	6613	2258.427216377774	0
0	6640	2267.429621128494	1
0	6644	2268.814400440603	2
0	6645	2269.313960040381	1
0	6653	2274.263882018324	0
0	6660	2276.072571568143	1
0	6664	2277.268891998804	2
0	6665	2278.997570626418	1
0	6671	2280.957426637418	0
0	6689	2283.24615007184	1
0	6697	2285.689886829798	2
0	6702	2287.50863471788	1
0	6708	2289.424230734627	0
0	6722	2292.884817698273	1
0	6724	2294.074116862549	2
0	6725	2295.279015954631	1
0	6730	2295.591117064261	0
0	6741	2297.075401883806	1
0	6748	2303.729080541634	0
0	6757	2306.098514439438	1
0	6758	2307.772985320677	0
0	6775	2313.0153733776	1
0	6780	2317.619803425597	2
0	6781	2318.569028655343	1
0	6787	2319.263310277191	0
0	6794	2319.457184530018	1
0	6796	2319.814872253392	2
0	6798	2321.519713802233	3
0	6800	2326.353508712868	4
0	6801	2327.429986080502	3
0	6806	2327.441127667636	2
0	6811	2328.730692900354	1
0	6818	2329.589713373517	0
0	6831	2331.420887749962	1
0	6835	2332.481513096549	2
0	6836	2332.590947810384	1
0	6844	2334.107357836966	0
0	6863	2336.555884792007	1
0	6864	2338.004371135736	0
0	6875	2339.941731377094	1
0	6876	2340.737658218681	0
0	6884	2341.349751847243	1
0	6885	2342.148199279051	0
0	6891	2342.547017646218	1
0	6892	2342.969207103671	0
0	6901	2348.148281886166	1
0	6909	2351.548145823799	0
0	6949	2365.621238228708	1
0	6952	2366.068629520843	0
0	6981	2375.752729265245	1
0	6983	2378.080660821502	2
0	6984	2380.311391056435	1
0	6990	2380.426244902344	2
0	6992	2380.543454385879	3
0	6994	2382.145302549082	2
0	6999	2382.223866358789	1
0	7006	2382.709953366092	2
0	7008	2383.187279910118	3
0	7010	2383.903527824188	4
0	7012	2383.973240888949	5
0	7014	2387.661346168285	4
0	7022	2392.408193817944	3
0	7028	2393.75822832133	2
0	7036	2396.102003644828	1
0	7041	2397.738047327234	0
0	7047	2397.995970713705	1
0	7051	2402.35667426869	2
0	7052	2403.31924230594	1
0	7061	2409.49848089166	0
0	7089	2414.777988682074	1
0	7090	2415.667807149327	0
0	7096	2415.723660969341	1
0	7097	2416.387933631593	0
0	7106	2418.769523702123	1
0	7114	2423.568246454203	2
0	7123	2430.80926544206	1
0	7129	2430.866965006852	2
0	7131	2431.385768474716	3
0	7135	2433.109705586158	2
0	7140	2433.347219613883	1
0	7148	2435.453715607416	2
0	7151	2438.42958861569	1
0	7158	2439.388389650592	2
0	7159	2439.620171424372	1
0	7164	2440.119774090451	0
0	7207	2458.34572494218	1
0	7210	2458.998473305487	0
0	7217	2459.369700032653	1
0	7222	2461.080865361448	2
0	7223	2461.264573071963	1
0	7229	2461.649154849773	2
0	7231	2462.341564404259	3
0	7233	2465.760414843788	2
0	7239	2466.232719091817	3
0	7242	2467.461136802794	4
0	7243	2467.87452896922	3
0	7251	2473.063323306321	4
0	7252	2474.258957376282	3
0	7257	2475.508237457493	2
0	7263	2477.425892838647	1
0	7268	2477.986402330656	0
0	7274	2478.627946927083	1
0	7275	2478.80413174459	0
0	7287	2480.994456570374	1
0	7291	2482.335101510629	0
0	7298	2483.208429648059	1
0	7300	2485.72997026412	2
0	7306	2487.327760178099	3
0	7307	2488.342529182808	2
0	7312	2488.42435256955	1
0	7317	2489.347116706697	0
0	7335	2493.504563415142	1
0	7337	2494.02498337514	2
0	7338	2495.899149077193	1
0	7343	2497.061479356811	0
0	7353	2500.795846802975	1
0	7359	2505.275494142104	2
0	7367	2505.628130867618	3
0	7371	2508.38137250711	4
0	7377	2512.752628347546	5
0	7379	2514.272908783906	6
0	7381	2515.40783287618	7
0	7385	2521.488459133017	8
0	7388	2522.988536763717	7
0	7394	2523.11392442287	6
0	7401	2523.922213365371	7
0	7403	2524.476053766299	8
0	7405	2525.001663098142	9
0	7406	2526.462578298766	8
0	7413	2530.642289888874	7
0	7419	2530.710592901368	8
0	7421	2532.143754841012	7
0	7426	2532.307149602105	6
0	7431	2532.408098298873	5
0	7437	2533.101220289545	6
0	7439	2535.152812901797	7
0	7440	2536.274041851645	6
0	7446	2537.766627752175	5
0	7450	2538.549193944641	6
0	7456	2543.271470814567	5
0	7462	2543.784900063076	4
0	7467	2543.870846878405	3
0	7474	2547.082592661099	4
0	7475	2547.461045156685	3
0	7481	2547.885671951776	2
0	7487	2551.40411532722	1
0	7495	2556.093587739611	2
0	7497	2556.797308818663	1
0	7502	2556.859130669536	0
0	7521	2561.73395027682	1
0	7522	2563.041714306263	0
0	7529	2564.674880078077	1
0	7531	2564.927093411419	2
0	7532	2569.872197761023	1
0	7538	2570.56868181594	0
0	7551	2571.506867067687	1
0	7552	2572.077511498607	0
0	7569	2576.633741416502	1
0	7570	2577.172664714623	0
0	7587	2581.843280755486	1
0	7589	2582.004048547221	2
0	7591	2582.132930829374	3
0	7593	2582.995706311111	4
0	7596	2585.191210507052	3
0	7602	2588.644959165968	2
0	7607	2588.82843961125	1
0	7613	2589.237347532069	0
0	7620	2591.271315105261	1
0	7624	2593.817036655527	2
0	7626	2595.625536428579	3
0	7628	2596.59882725341	4
0	7629	2597.338499416944	3
0	7634	2597.942733231073	2
0	7640	2598.637178828897	3
0	7642	2599.872247652958	2
0	7648	2602.882867863943	1
0	7656	2606.70934250036	2
0	7657	2608.848429254152	1
0	7664	2612.810425316584	2
0	7665	2614.06604188983	1
0	7671	2616.045406836818	0
0	7692	2619.493845131433	1
0	7696	2621.060078181132	2
0	7697	2622.158305784056	1
0	7703	2623.76707872031	0
0	7720	2630.121688820981	1
0	7724	2633.048253885488	2
0	7728	2638.411587622435	3
0	7729	2639.553635262139	2
0	7739	2641.950489443396	3
0	7740	2642.723147132133	2
0	7746	2643.048552914819	3
0	7747	2643.41828445844	2
0	7754	2644.072069096951	3
0	7756	2650.750144157591	2
0	7762	2652.331942661597	1
0	7767	2652.332981476964	0
0	7773	2652.610024905352	1
0	7777	2654.840418759778	0
0	7800	2660.466158292788	1
0	7802	2661.589444816725	2
0	7803	2664.884598342249	1
0	7811	2667.259029438588	0
0	7821	2668.974662247427	1
0	7824	2670.065856912356	0
0	7844	2672.591408334749	1
0	7846	2673.158286325212	2
0	7849	2673.863728737402	1
0	7854	2673.895418003641	0
0	7870	2678.855749300917	1
0	7873	2680.677392383852	0
0	7881	2682.491943472249	1
0	7885	2687.988485907697	0
0	7906	2699.307267817314	1
0	7908	2700.070942318222	2
0	7910	2702.738064511879	3
0	7914	2705.038592911487	4
0	7915	2707.342330967626	3
0	7924	2712.650134091872	4
0	7926	2714.169629184091	5
0	7928	2716.890497834986	6
0	7931	2718.072152383012	5
0	7936	2718.209735663444	4
0	7943	2719.197031422676	5
0	7945	2719.292383143834	6
0	7948	2722.071655538261	7
0	7954	2723.330301519781	8
0	7955	2723.521994565032	7
0	7964	2725.750494835579	6
0	7969	2726.844459964422	5
0	7975	2727.444886730884	4
0	7981	2729.972714432983	5
0	7987	2732.544428968948	6
0	7990	2733.174003213545	5
0	7999	2734.557002765896	6
0	8001	2737.988351975693	7
0	8003	2743.455863504451	8
0	8004	2744.155098128813	7
0	8014	2745.13770970077	6
0	8021	2746.048857804293	7
0	8029	2748.910107662737	8
0	8031	2749.911029511171	9
0	8033	2751.339824713033	10
0	8034	2751.836930151816	9
0	8039	2751.87046037787	8
0	8046	2753.107451985911	7
0	8052	2753.167879518583	6
0	8057	2753.423480279121	5
0	8070	2755.971798298969	4
0	8075	2757.538873308859	3
0	8080	2758.015488525534	2
0	8088	2759.454508940914	3
0	8089	2759.653194753536	2
0	8093	2761.575917608653	3
0	8098	2763.360174192893	2
0	8109	2764.6915160544	3
0	8111	2767.426320661261	2
0	8116	2767.540358069894	1
0	8121	2767.628833237369	0
0	8129	2767.769509318709	1
0	8130	2768.193354505099	0
0	8134	2770.338816608792	1
0	8137	2772.366755743193	0
0	8141	2773.322393004333	1
0	8146	2775.171489609876	0
0	8154	2778.483620107373	1
0	8156	2778.860252264397	2
0	8157	2779.138792953901	1
0	8162	2782.612650030671	0
0	8185	2785.524736198973	1
0	8188	2785.734858125815	0
0	8194	2786.508759260583	1
0	8199	2787.401497855568	2
0	8203	2789.644925000767	1
0	8209	2790.028450699173	2
0	8212	2793.333347548428	1
0	8218	2793.926437590248	0
0	8225	2794.836682280894	1
0	8226	2797.16096983423	0
0	8233	2801.901062915283	1
0	8234	2802.803113259553	0
0	8271	2812.741305951874	1
0	8272	2812.950935473322	0
0	8298	2817.953413681184	1
0	8300	2818.337694352241	2
0	8301	2822.002551004753	1
0	8307	2825.319740397999	0
0	8316	2827.553516355871	1
0	8317	2828.897703675943	0
0	8323	2829.379153715585	1
0	8327	2830.537363521948	2
0	8329	2831.742946309606	1
0	8336	2834.057218711442	2
0	8338	2835.817648749862	3
0	8339	2836.089815382286	2
0	8344	2838.546542776838	1
0	8351	2839.466811287963	0
0	8358	2839.852783764333	1
0	8360	2841.537788520959	0
0	8378	2846.258750370716	1
0	8381	2846.850402145767	0
0	8397	2850.625770251982	1
0	8399	2850.779239869354	0
0	8421	2861.69611490039	1
0	8427	2869.075909311798	2
0	8429	2869.607418891773	3
0	8430	2869.750579616993	2
0	8435	2869.854099935463	1
0	8440	2869.908847656448	0
0	8454	2873.031771075347	1
0	8457	2873.696807606779	0
0	8464	2880.079886779982	1
0	8465	2880.353905623523	0
0	8474	2880.744943633789	1
0	8484	2887.683870103731	2
0	8486	2888.019270517303	3
0	8487	2888.874245434534	2
0	8492	2890.276194952966	1
0	8499	2891.014957820494	2
0	8502	2892.525439609405	1
0	8507	2893.105313912327	0
0	8514	2893.485371787682	1
0	8515	2893.791030759119	0
0	8525	2895.19487984629	1
0	8529	2899.077200115115	2
0	8530	2899.777326582541	1
0	8535	2899.98314787805	0
0	8571	2912.231287757252	1
0	8573	2913.042567340955	2
0	8577	2915.20502561862	1
0	8583	2915.347719998056	2
0	8584	2916.833269178116	1
0	8589	2917.013454954345	0
0	8595	2918.490976452619	1
0	8600	2919.724455811274	0
0	8604	2919.847772261377	1
0	8611	2922.835084914094	2
0	8614	2923.206128029628	3
0	8616	2923.912262310057	2
0	8621	2924.252168115325	1
0	8628	2928.895103116361	0
0	8640	2932.138926208322	1
0	8642	2933.928669574294	0
0	8669	2941.850044152458	1
0	8674	2946.273729261722	0
0	8684	2948.273480655425	1
0	8688	2950.625884039772	0
0	8700	2951.984260987157	1
0	8703	2953.946575096238	2
0	8704	2954.942012671253	1
0	8711	2955.580570934241	2
0	8712	2956.935400416569	1
0	8717	2958.314967451138	0
0	8747	2976.452806745729	1
0	8749	2976.784447346941	2
0	8753	2980.153882935787	3
0	8756	2981.63702604862	2
0	8764	2982.372160316304	3
0	8766	2982.873074145176	4
0	8767	2983.324175997082	3
0	8772	2983.957711815709	2
0	8779	2984.855310788917	1
0	8787	2987.855129367844	2
0	8788	2988.106295232815	1
0	8793	2991.996783421579	0
0	8801	2993.720799610774	1
0	8802	2994.195366943014	0
0	8841	3010.781059942947	1
0	8843	3012.720531217118	2
0	8846	3012.863350628745	1
0	8852	3014.794105239775	0
0	8866	3017.180211143483	1
0	8867	3017.358156076802	0
0	8879	3021.294656747591	1
0	8882	3023.217427182412	0
0	8906	3028.971897505545	1
0	8908	3032.281394020558	2
0	8909	3032.542529386308	1
0	8915	3033.270822188239	0
0	8922	3035.422056893344	1
0	8923	3036.279971669599	0
0	8949	3043.288123953833	1
0	8951	3043.784229541127	2
0	8956	3044.890936063098	1
0	8961	3045.021863343366	0
0	8977	3047.07682614224	1
0	8979	3047.146920900371	2
0	8981	3048.433962359506	1
0	8989	3051.78142416022	0
0	9009	3059.292500905784	1
0	9011	3060.040439960999	2
0	9015	3060.428714408473	3
0	9016	3061.071652763065	2
0	9025	3061.733166277162	3
0	9026	3063.05731824755	2
0	9032	3063.77863776723	3
0	9033	3065.156139206352	2
0	9042	3066.437382909625	3
0	9043	3068.515422270946	2
0	9048	3068.947073805904	1
0	9054	3069.843148437283	2
0	9056	3071.080677949072	1
0	9065	3074.689466090623	0
0	9078	3078.532331355712	1
0	9080	3082.474257299127	2
0	9082	3083.90229570944	3
0	9083	3085.09852615336	2
0	9089	3086.312050288786	1
0	9096	3087.675484804768	0
0	9104	3088.265074652007	1
0	9105	3090.170611359592	0
0	9112	3090.876749818785	1
0	9113	3091.205733097234	0
0	9119	3091.991224449151	1
0	9122	3094.224158198141	2
0	9125	3095.477850315223	1
0	9131	3095.834452550468	0
0	9166	3108.647611569432	1
0	9168	3109.787970083931	2
0	9170	3110.060388602618	3
0	9171	3111.343230940414	2
0	9180	3112.109603957168	3
0	9182	3112.256028817731	4
0	9184	3112.508503786609	3
0	9189	3112.779840791988	2
0	9194	3112.814321717826	1
0	9200	3114.045225605695	2
0	9202	3114.169637521662	3
0	9205	3114.580197470311	2
0	9213	3117.083901862341	3
0	9214	3118.125211291468	2
0	9222	3120.813841548109	3
0	9226	3122.044861246096	2
0	9232	3124.187131523625	3
0	9235	3128.521490032365	2
0	9243	3131.749301779374	3
0	9244	3133.046272533795	2
0	9250	3133.348307034889	1
0	9256	3136.500907923489	0
0	9262	3136.943831481166	1
0	9263	3138.108892751002	0
0	9275	3139.170406632321	1
0	9285	3145.328437741301	0
0	9315	3149.358488236221	1
0	9320	3151.281350160141	2
0	9321	3153.348464357797	1
0	9327	3154.10035158671	0
0	9340	3155.064006161385	1
0	9341	3155.064260410636	0
0	9368	3163.684926870709	1
0	9374	3166.251774805064	2
0	9375	3166.569986341143	1
0	9380	3168.635164294905	0
0	9389	3170.263375787185	1
0	9396	3173.335010191892	0
0	9403	3173.88660808006	1
0	9405	3174.48438293234	0
0	9412	3176.629679853354	1
0	9413	3176.943700190906	0
0	9425	3178.225812596864	1
0	9427	3178.379903483576	2
0	9429	3178.912614539439	1
0	9436	3179.507498088738	0
0	9472	3187.718037688499	1
0	9476	3188.947600115427	2
0	9478	3192.928137684512	3
0	9479	3193.231236912958	2
0	9485	3193.529895475517	3
0	9489	3195.715522702343	4
0	9491	3197.213567208941	5
0	9494	3198.853386297847	4
0	9501	3202.682904624892	3
0	9507	3210.517795551399	2
0	9513	3210.530945153787	3
0	9515	3211.301729543324	2
0	9525	3214.401922378829	1
0	9531	3215.676560472086	0
0	9537	3216.567757303837	1
0	9539	3216.976468982327	2
0	9540	3217.117527558502	1
0	9545	3218.306320155947	0
0	9580	3232.278112229838	1
0	9582	3232.511436618915	2
0	9585	3237.987362298101	1
0	9590	3238.05011370107	0
0	9596	3238.277011202344	1
0	9599	3238.64323160165	2
0	9603	3240.452066568444	3
0	9604	3241.164326501818	2
0	9610	3242.359145522687	1
0	9616	3242.737633976614	2
0	9618	3244.670196853675	1
0	9626	3245.829443993216	0
0	9634	3246.620044516579	1
0	9636	3248.331121241552	0
0	9642	3250.104089703725	1
0	9647	3253.678204908438	0
0	9653	3254.153227267373	1
0	9658	3255.773013780302	2
0	9660	3256.217870979177	3
0	9664	3257.278343565198	4
0	9665	3257.519379351916	3
0	9671	3259.318617198826	2
0	9677	3260.84473126482	1
0	9683	3261.272413409952	2
0	9687	3262.982205916899	1
0	9695	3264.65069072851	0
0	9702	3266.889292968335	1
0	9703	3273.004681422124	0
0	9709	3274.27105871039	1
0	9710	3276.354652823349	0
0	9745	3284.862021695238	1
0	9746	3285.42441409792	0
0	9763	3292.23429292065	1
0	9769	3296.664173302753	2
0	9771	3300.286274881369	3
0	9774	3301.720360897336	2
0	9781	3302.559957052728	3
0	9783	3303.224024090609	4
0	9784	3304.249091128817	3
0	9790	3304.479795209466	4
0	9795	3310.164419167657	5
0	9796	3310.438449218326	4
0	9801	3310.470696381578	3
0	9808	3311.131694808925	2
0	9813	3311.133066714428	1
0	9823	3314.704250912823	0
0	9851	3325.951753874817	1
0	9854	3329.926498335407	0
0	9860	3330.47676279961	1
0	9863	3331.511651488142	2
0	9865	3332.818764242506	3
0	9868	3338.273636223268	2
0	9874	3339.741648317206	3
0	9876	3342.104730625768	2
0	9883	3343.118753889505	3
0	9884	3343.682233823485	2
0	9892	3351.57636517913	1
0	9898	3352.83793631916	0
0	9907	3354.546986265378	1
0	9911	3356.771226600243	2
0	9915	3360.812720937612	1
0	9921	3362.025524492075	0
0	9927	3362.208076808469	1
0	9929	3364.094332180825	0
0	9940	3367.495458672408	1
0	9942	3368.18508087959	0
0	9956	3377.301848727533	1
0	9959	3383.552141840762	0
0	9987	3397.46958159975	1
0	9988	3397.740172983912	0
0	10005	3403.802776634194	1
0	10006	3403.851181845321	0
0	10012	3403.980382162821	1
0	10020	3407.836855757737	0
0	10027	3408.560996534423	1
0	10028	3408.87893386493	0
0	10034	3409.604470686333	1
0	10037	3410.144339043324	2
0	10040	3411.855167617329	1
0	10047	3413.799639791974	2
0	10048	3413.96365903224	1
0	10053	3415.676954148146	0
0	10062	3419.843146323035	1
0	10070	3422.163543062582	0
0	10094	3426.115183337724	1
0	10096	3427.324189304258	0
0	10107	3429.039822479459	1
0	10108	3429.657110249715	0
0	10127	3432.302829708876	1
0	10129	3434.653252041926	0
0	10138	3438.365575138103	1
0	10139	3439.041636974932	0
0	10153	3443.598679658843	1
0	10155	3443.715705727044	2
0	10156	3444.22023292535	1
0	10165	3447.200129620077	2
0	10166	3448.05911378922	1
0	10171	3448.18389655354	0
0	10178	3449.224607448568	1
0	10179	3449.371758757313	0
0	10207	3458.344325239149	1
0	10210	3460.067295119022	0
0	10216	3460.426033949877	1
0	10221	3462.223264409492	0
0	10227	3462.449618252111	1
0	10229	3463.365738940118	0
0	10246	3470.914038116259	1
0	10249	3473.747280718383	0
0	10265	3476.545553959696	1
0	10266	3476.832725698136	0
0	10288	3481.822085313224	1
0	10289	3482.539699452791	0
0	10309	3488.260223420892	1
0	10317	3491.709908385514	0
0	10325	3492.857423987156	1
0	10327	3494.126405843599	0
0	10354	3503.664890265151	1
0	10355	3507.283078356871	0
0	10369	3510.166571270714	1
0	10373	3513.988535210276	0
0	10389	3516.434887773026	1
0	10392	3519.386741713217	0
0	10399	3520.215855782473	1
0	10400	3521.485827821198	0
0	10406	3521.959725685167	1
0	10407	3522.6284250286	0
0	10414	3523.750393504797	1
0	10416	3524.550596002253	0
0	10432	3530.293280273516	1
0	10435	3531.019039533596	0
0	10442	3532.986455304465	1
0	10445	3534.193478193112	2
0	10446	3535.260081060148	1
0	10452	3535.981771582687	0
0	10458	3536.316980391689	1
0	10459	3536.794112694201	0
0	10466	3537.645985654066	1
0	10468	3541.08869516159	0
0	10482	3544.848481306201	1
0	10483	3545.342300594524	0
0	10489	3545.957299609362	1
0	10494	3548.348562090455	2
0	10496	3549.249280960401	3
0	10498	3552.891027629724	4
0	10500	3553.11979897232	5
0	10501	3555.398797379402	4
0	10506	3555.439105812601	3
0	10511	3555.444205577454	2
0	10517	3555.787604686499	1
0	10521	3556.771174710623	2
0	10525	3558.581815906172	3
0	10528	3560.695901571039	2
0	10534	3561.024313817594	3
0	10536	3561.873124117352	4
0	10540	3565.321578615819	3
0	10548	3568.427669066424	2
0	10555	3571.084519736381	1
0	10561	3572.770445635418	0
0	10568	3573.86032627397	1
0	10569	3575.61835236993	0
0	10611	3589.511926585476	1
0	10613	3589.86056064353	2
0	10616	3591.059842106089	1
0	10622	3591.844577267613	2
0	10623	3591.998330053523	1
0	10632	3596.233045769795	0
0	10639	3602.256057286428	1
0	10640	3605.867149124762	0
0	10646	3605.907618884683	1
0	10648	3606.490334387506	0
0	10654	3607.061138147003	1
0	10655	3607.908864316579	0
0	10661	3608.0923121334	1
0	10664	3610.005923610334	0
0	10678	3613.169344948639	1
0	10680	3613.31905213619	2
0	10682	3613.459951280304	3
0	10684	3614.469152790511	4
0	10686	3619.191903846828	5
0	10688	3619.371961102813	6
0	10691	3622.347125287084	5
0	10697	3622.507084290627	6
0	10702	3624.035349945878	5
0	10712	3627.656991470361	6
0	10713	3630.044637940482	5
0	10718	3630.201837475107	4
0	10724	3630.313077643138	5
0	10725	3630.465691264089	4
0	10730	3630.823479771884	3
0	10737	3632.595841343815	2
0	10743	3635.764628787351	1
0	10751	3638.317511384101	0
0	10758	3638.712904948884	1
0	10760	3638.85768688643	2
0	10763	3643.731723248689	1
0	10768	3645.167898127332	0
0	10777	3647.456609238018	1
0	10780	3649.487632095456	0
0	10816	3659.836176293617	1
0	10817	3660.407343698403	0
0	10825	3661.187376262987	1
0	10826	3661.263764270358	0
0	10840	3666.814955561651	1
0	10841	3667.983927695281	0
0	10856	3670.194041032847	1
0	10859	3674.318875978031	0
0	10866	3675.367515667925	1
0	10868	3676.198546997131	2
0	10870	3678.564545255551	3
0	10872	3680.545303205013	4
0	10876	3681.311409694661	5
0	10880	3682.441925647337	6
0	10883	3682.750452899978	5
0	10890	3684.660065487411	4
0	10895	3686.660773715622	3
0	10901	3687.559416480089	4
0	10903	3689.188089392329	5
0	10905	3689.592254597219	6
0	10909	3691.816562713218	5
0	10916	3694.034315432035	4
0	10925	3696.646432581533	3
0	10931	3696.832170188914	4
0	10933	3696.869810757021	5
0	10934	3697.486424638538	4
0	10940	3697.576432431235	3
0	10946	3698.067871574469	4
0	10953	3705.018160028208	5
0	10956	3706.244187625418	6
0	10957	3706.433032494503	5
0	10963	3710.924449344568	4
0	10970	3712.841959582198	5
0	10971	3714.173509448562	4
0	10977	3716.221777694193	3
0	10987	3717.033914153946	4
0	10989	3717.408578107942	5
0	10990	3718.104205140786	4
0	10995	3718.448365894871	3
0	11003	3719.376729485855	4
0	11004	3719.966181652863	3
0	11009	3720.100753442259	2
0	11016	3723.155822874696	3
0	11019	3723.744559763563	2
0	11025	3724.823535306835	1
0	11031	3725.184450295175	0
0	11043	3728.098408480797	1
0	11048	3730.032276502217	0
0	11057	3732.407375007848	1
0	11059	3734.597869423739	0
0	11066	3736.907030276385	1
0	11069	3737.517827597443	0
0	11075	3738.479926575511	1
0	11079	3739.962449143862	2
0	11080	3740.084615586105	1
0	11085	3740.424889221194	0
0	11094	3744.024236151858	1
0	11096	3746.518113040149	2
0	11097	3747.376045918784	1
0	11103	3747.716331815919	2
0	11104	3748.996508725184	1
0	11110	3749.020660512581	2
0	11114	3750.803778268288	1
0	11121	3753.511649905426	0
0	11148	3759.910547958302	1
0	11149	3761.273436336387	0
0	11155	3761.46780790996	1
0	11157	3762.595837673741	0
0	11163	3763.011587290137	1
0	11164	3763.724017529975	0
0	11176	3766.21894953689	1
0	11178	3766.250661988864	2
0	11185	3768.028926745999	1
0	11191	3768.926568795126	2
0	11193	3769.170479560591	3
0	11195	3772.28051172152	2
0	11201	3773.964702561733	3
0	11202	3774.408454789746	2
0	11206	3775.996461488816	3
0	11209	3778.246034503543	2
0	11213	3780.856002466743	3
0	11215	3784.430330528777	4
0	11218	3784.897370013652	3
0	11223	3786.68852543926	2
0	11230	3787.471245269823	3
0	11233	3796.153269969981	2
0	11242	3799.084025640178	3
0	11243	3799.174816663629	2
0	11249	3800.468614030725	1
0	11256	3801.065897354844	2
0	11257	3801.21471436834	1
0	11262	3802.257403407975	0
0	11299	3807.564282176662	1
0	11300	3808.904792550102	0
0	11313	3811.838878862191	1
0	11318	3819.817070306967	2
0	11319	3820.260813782251	1
0	11327	3824.19937932351	0
0	11333	3825.014195885354	1
0	11335	3825.391723018104	0
0	11352	3829.964374898628	1
0	11356	3833.160147120816	2
0	11357	3834.93803319603	1
0	11363	3835.797078053715	0
0	11372	3839.479231740456	1
0	11379	3843.18281066283	2
0	11382	3843.634455154837	1
0	11387	3843.946124321692	0
0	11400	3847.532678894079	1
0	11406	3850.291444752284	2
0	11409	3851.107768426463	3
0	11410	3852.756741541673	2
0	11421	3857.106700436485	1
0	11429	3858.665173688358	0
0	11440	3862.234266850333	1
0	11448	3868.909025126273	0
0	11460	3872.390791545847	1
0	11462	3872.629311977737	2
0	11464	3874.646446457655	3
0	11465	3874.792005361181	2
0	11471	3875.91811348621	3
0	11474	3880.191974811801	4
0	11475	3881.128576056532	3
0	11482	3882.26145191331	4
0	11484	3883.597445420355	5
0	11485	3885.187105328056	4
0	11495	3887.061424585007	5
0	11499	3892.110872059532	6
0	11500	3893.070200535656	5
0	11514	3898.237335258807	4
0	11519	3898.486653661452	3
0	11524	3898.710193858726	2
0	11529	3898.869325167238	1
0	11534	3899.442062700347	0
0	11544	3902.139951681444	1
0	11546	3902.30370294867	2
0	11548	3902.5342207915	3
0	11550	3902.707308211012	4
0	11555	3906.380220488223	5
0	11559	3907.897908631199	4
0	11564	3908.791114269523	3
0	11570	3908.994432100522	4
0	11571	3909.392623879471	3
0	11575	3909.852944357759	4
0	11578	3910.330626730898	3
0	11582	3912.294882861298	4
0	11589	3915.757769724734	3
0	11594	3916.533703958852	2
0	11600	3916.623231486142	3
0	11602	3917.417012109914	4
0	11603	3918.769073503814	3
0	11610	3920.055519356276	4
0	11612	3920.154763360984	3
0	11617	3921.735988672291	2
0	11623	3922.027289801558	3
0	11625	3922.80761882632	4
0	11627	3923.146674145797	5
0	11630	3923.475382871629	6
0	11635	3926.506811705064	5
0	11643	3926.964375667862	6
0	11646	3929.534054192772	7
0	11648	3929.751587882486	8
0	11649	3932.969694673847	7
0	11654	3934.521431677955	6
0	11662	3935.91254564972	5
0	11668	3937.751361262164	4
0	11674	3938.900392597442	3
0	11680	3939.613950736739	4
0	11681	3940.953080143986	3
0	11688	3942.541816600238	2
0	11693	3943.067742832731	1
0	11700	3944.51263053346	0
0	11714	3950.919991842483	1
0	11715	3952.941292159725	0
0	11731	3954.359836302598	1
0	11733	3955.782516041447	0
0	11742	3958.312303241893	1
0	11746	3959.742873711837	2
0	11748	3960.877683651588	3
0	11749	3963.657447895864	2
0	11754	3964.958667020484	1
0	11761	3965.052233210131	2
0	11765	3966.320422280044	1
0	11771	3966.753743749597	2
0	11773	3966.800627892155	3
0	11775	3967.064785148888	2
0	11780	3968.527641961601	1
0	11785	3970.352898515079	0
0	11800	3972.379811734027	1
0	11809	3974.334855507162	0
0	11837	3981.018064899389	1
0	11841	3982.524495745193	0
0	11847	3983.5927965676	1
0	11850	3984.658469660677	2
0	11851	3985.649713569492	1
0	11858	3985.728296342321	0
0	11897	3996.846454010313	1
0	11899	3997.685882336094	2
0	11901	3998.381472461013	3
0	11902	3999.714355879005	2
0	11908	4001.769553618943	1
0	11913	4002.291352325587	0
0	11920	4003.201287009339	1
0	11921	4004.219313038293	0
0	11971	4019.401888712564	1
0	11972	4020.447322659103	0
0	11995	4023.716116460203	1
0	11996	4024.112272616046	0
0	12013	4026.374896076001	1
0	12017	4037.804666550964	2
0	12020	4038.568503328177	1
0	12030	4041.074842991328	2
0	12031	4041.595941636439	1
0	12037	4043.370686826271	0
0	12049	4045.520855761424	1
0	12051	4045.73648898347	2
0	12055	4047.691162288798	1
0	12070	4051.266912976716	2
0	12071	4052.131398924404	1
0	12079	4055.409718628473	0
0	12086	4055.95872293027	1
0	12087	4056.187135742298	0
0	12095	4058.919477383159	1
0	12096	4059.235063547981	0
0	12104	4060.631959772195	1
0	12111	4065.069564499005	0
0	12117	4068.783725989288	1
0	12119	4069.249900804784	2
0	12122	4069.662954364676	3
0	12125	4071.801796968842	2
0	12130	4072.204399672313	1
0	12135	4073.011353242303	0
0	12153	4075.008572404754	1
0	12154	4075.074842180976	0
0	12162	4077.408014859455	1
0	12163	4077.791170531937	0
0	12174	4078.050138198232	1
0	12176	4078.434717117816	2
0	12182	4083.652906727392	3
0	12185	4084.281540835636	2
0	12190	4085.127315557532	1
0	12196	4085.614747526299	0
0	12202	4085.811825974626	1
0	12204	4086.354544163123	0
0	12210	4086.387291294058	1
0	12211	4086.516723050645	0
0	12254	4106.401928782741	1
0	12255	4107.176215205906	0
0	12262	4110.059146610443	1
0	12263	4110.179904907778	0
0	12280	4116.724666860377	1
0	12282	4118.87387428712	2
0	12283	4119.524648607953	1
0	12288	4119.961196228254	0
0	12295	4123.209117531252	1
0	12297	4123.385638884859	2
0	12300	4125.369926898382	3
0	12301	4126.029646576936	2
0	12308	4131.290755811896	1
0	12314	4132.402303482952	0
0	12342	4138.551209698712	1
0	12344	4139.237476271276	2
0	12353	4145.285875080546	1
0	12359	4147.667251490973	0
0	12376	4149.067767673959	1
0	12378	4149.363981421827	2
0	12381	4149.477174486313	1
0	12386	4149.486081316861	0
0	12392	4149.878333481404	1
0	12394	4150.031155992518	2
0	12396	4150.512298854761	1
0	12405	4154.502963582275	0
0	12419	4159.380606073331	1
0	12421	4161.808934598648	0
0	12433	4166.362214663512	1
0	12435	4168.034528244255	2
0	12436	4169.777643260249	1
0	12441	4170.277782907498	0
0	12454	4173.528338405349	1
0	12455	4173.68356133138	0
0	12471	4176.263078005218	1
0	12472	4178.347844096029	0
0	12479	4179.908600855804	1
0	12482	4180.730128287879	0
0	12490	4185.242591449301	1
0	12491	4186.674009352482	0
0	12505	4187.8139960261	1
0	12506	4188.701693768142	0
0	12513	4189.894498527333	1
0	12515	4190.621575782564	0
0	12526	4192.28177012448	1
0	12527	4192.505594885911	0
0	12549	4196.880207154969	1
0	12558	4202.279788456775	2
0	12559	4204.200617911031	1
0	12565	4205.602427838217	0
0	12600	4223.834750839294	1
0	12602	4224.194128269595	2
0	12603	4228.269757032218	1
0	12609	4231.611580532565	2
0	12613	4233.297711436051	3
0	12614	4235.488584713529	2
0	12621	4237.69254643206	3
0	12622	4239.576450348202	2
0	12628	4240.272082448272	1
0	12634	4241.948749596461	0
0	12646	4244.714150079513	1
0	12648	4248.289477190568	2
0	12650	4249.878225026418	3
0	12655	4251.634343305292	2
0	12661	4251.711074967563	3
0	12666	4253.221202730997	4
0	12667	4256.737987888628	3
0	12675	4257.165312287483	4
0	12677	4258.470019285066	3
0	12684	4260.073451429436	4
0	12685	4260.113039029944	3
0	12691	4262.357944839391	2
0	12697	4262.518125623658	3
0	12699	4264.238481952936	2
0	12704	4264.245102215138	1
0	12709	4264.55139946383	0
0	12718	4264.728445609548	1
0	12720	4267.817772335984	2
0	12731	4277.270278055593	1
0	12739	4279.223127023454	2
0	12742	4280.548524059392	1
0	12747	4281.74647983752	0
0	12754	4283.717636232781	1
0	12757	4284.772830456077	0
0	12764	4286.699904674825	1
0	12767	4287.797484268412	0
0	12778	4289.049281074692	1
0	12783	4292.469257553692	2
0	12786	4292.801492895115	3
0	12787	4293.056435739785	2
0	12794	4297.412081696936	1
0	12800	4297.503377061628	2
0	12802	4297.684892348988	3
0	12803	4300.446349268026	2
0	12808	4306.169812037996	1
0	12812	4306.266174872987	2
0	12815	4306.4036476547	1
0	12824	4309.148481947118	0
0	12837	4311.216275453776	1
0	12838	4313.282772261822	0
0	12852	4314.793475026749	1
0	12854	4318.017094488343	2
0	12855	4318.75472955428	1
0	12862	4319.177082345029	2
0	12864	4320.900721492146	1
0	12869	4322.970106009101	0
0	12877	4324.963734074848	1
0	12882	4327.189581794638	0
0	12895	4329.939033206988	1
0	12897	4329.997199033676	2
0	12898	4330.468396181067	1
0	12903	4331.833326891696	0
0	12931	4341.14174891332	1
0	12937	4342.267588040043	2
0	12940	4344.367661523908	1
0	12946	4345.455004693829	2
0	12949	4349.833868202961	3
0	12952	4350.480108457788	2
0	12958	4353.142261942994	1
0	12965	4353.839430247405	2
0	12967	4356.290433354856	3
0	12969	4356.292029489844	4
0	12971	4356.904467939769	5
0	12973	4359.612001973842	6
0	12974	4363.12478694652	5
0	12980	4363.202120663615	6
0	12983	4365.556820897595	5
0	12990	4366.568927653525	4
0	12997	4369.503002726211	5
0	13000	4370.480769333149	4
0	13006	4371.383960885589	5
0	13009	4371.654539446929	6
0	13010	4373.360724603418	5
0	13015	4373.821448342667	4
0	13023	4377.395495595699	3
0	13031	4380.107630251753	4
0	13033	4381.054658374893	3
0	13039	4383.297203721241	2
0	13044	4383.35400063402	1
0	13050	4383.615844938161	0
0	13057	4384.120316607113	1
0	13058	4384.238757296207	0
0	13089	4389.56656352453	1
0	13095	4393.715618030678	2
0	13097	4394.900289000538	3
0	13098	4396.50300318076	2
0	13104	4397.658434387102	1
0	13117	4403.527488488518	2
0	13118	4403.677833691404	1
0	13125	4404.784775665794	2
0	13129	4407.078095619781	3
0	13132	4412.593420345144	4
0	13134	4412.927096311908	5
0	13136	4413.045906524968	6
0	13137	4415.21225434785	5
0	13146	4417.921343014604	4
0	13153	4420.406873605099	3
0	13161	4420.913174609116	2
0	13166	4421.615019304401	1
0	13172	4421.767812071114	2
0	13176	4423.280529078557	3
0	13177	4423.746225941459	2
0	13183	4424.988943164147	1
0	13188	4425.551153806819	0
0	13230	4437.018315903838	1
0	13231	4437.404191784337	0
0	13243	4441.402959685557	1
0	13244	4443.763857730872	0
0	13257	4447.676810427028	1
0	13259	4448.010761526227	2
0	13260	4448.071948700417	1
0	13266	4448.158592253617	2
0	13269	4451.413585878085	1
0	13277	4454.925162195283	2
0	13279	4455.049150993816	3
0	13280	4455.114701122467	2
0	13287	4455.27624857954	3
0	13289	4455.821090607619	4
0	13293	4457.325485386315	5
0	13294	4457.960986286505	4
0	13299	4459.125103965802	3
0	13304	4459.455834917948	2
0	13309	4459.897949184722	1
0	13314	4461.27027522187	0
0	13318	4462.092548882264	1
0	13323	4463.631342763689	0
0	13327	4464.153991235363	1
0	13330	4465.201743231582	0
0	13334	4465.588629557132	1
0	13336	4467.207639674202	2
0	13340	4468.683740038146	1
0	13346	4469.102082136531	2
0	13350	4470.067484683667	1
0	13356	4471.274564959533	2
0	13359	4474.228801975183	1
0	13366	4478.274475474865	2
0	13369	4482.785274546579	1
0	13375	4482.857921755727	2
0	13378	4491.37525269244	1
0	13383	4492.61628638298	0
0	13391	4493.650942204099	1
0	13396	4495.474903952181	0
0	13410	4496.882435886267	1
0	13413	4497.963424129947	0
0	13432	4503.437230920405	1
0	13434	4504.404644993491	2
0	13436	4504.40489837341	3
0	13438	4507.155370839165	2
0	13444	4507.739524932505	3
0	13445	4508.293854967666	2
0	13451	4509.607012970928	3
0	13459	4517.900922050326	4
0	13460	4520.611541007792	3
0	13468	4524.580568688278	2
0	13474	4525.878522013264	1
0	13485	4532.148341321667	0
0	13491	4532.765673749376	1
0	13493	4533.375069098745	2
0	13497	4537.263999904634	3
0	13498	4537.606212042026	2
0	13503	4538.031414428727	1
0	13510	4539.202630980167	0
0	13514	4539.734664848887	1
0	13524	4543.551021795528	0
0	13551	4549.628593157231	1
0	13552	4550.022308950414	0
0	13568	4552.730665807247	1
0	13573	4554.498983495213	0
0	13584	4554.715290919845	1
0	13588	4555.374995852105	0
0	13600	4558.481674101489	1
0	13601	4558.771154236204	0
0	13610	4560.434503565574	1
0	13611	4560.554979870218	0
0	13618	4562.078154577852	1
0	13619	4563.445651123989	0
0	13634	4565.712336160983	1
0	13640	4570.289185162855	0
0	13674	4575.243705297032	1
0	13675	4577.243636974026	0
0	13681	4577.346107351862	1
0	13682	4577.390713058427	0
0	13688	4577.811891764802	1
0	13690	4578.814783933986	0
0	13697	4579.493596020576	1
0	13699	4579.956791580539	2
0	13700	4580.431339803341	1
0	13706	4580.453150721257	2
0	13708	4583.723508102256	1
0	13713	4585.269672126363	0
0	13719	4587.796031922397	1
0	13722	4588.013103519999	0
0	13751	4598.376441775129	1
0	13756	4600.243249649452	0
0	13771	4602.573488594868	1
0	13774	4604.643048789777	0
0	13797	4611.160204658092	1
0	13798	4613.557335122119	0
0	13815	4619.487543130002	1
0	13816	4619.991802169426	0
0	13828	4621.872126061982	1
0	13832	4626.460481594096	2
0	13834	4628.229012507111	3
0	13835	4630.067307021873	2
0	13840	4630.155508697434	1
0	13848	4632.659949228722	2
0	13849	4633.668622326608	1
0	13854	4634.146714131576	0
0	13863	4635.40704868506	1
0	13869	4639.618727668754	0
0	13875	4640.847666606371	1
0	13878	4643.326022065057	2
0	13879	4643.750796817048	1
0	13884	4643.829773102481	0
0	13908	4647.996680308689	1
0	13911	4648.950991710477	0
0	13928	4656.566355294863	1
0	13931	4657.765072274249	0
0	13937	4658.146482913496	1
0	13940	4659.73048774187	0
0	13946	4659.943256081049	1
0	13956	4665.983967617748	2
0	13958	4668.03325414729	3
0	13961	4673.277209148127	2
0	13968	4673.831803713391	3
0	13971	4674.388749418149	4
0	13972	4676.810469778052	3
0	13978	4677.035760549053	4
0	13979	4679.137742298513	3
0	13985	4679.983675110698	4
0	13987	4681.063585166355	3
0	13993	4681.393224295407	4
0	13997	4683.10207877817	3
0	14002	4683.60758955036	2
0	14007	4686.989178261847	1
0	14013	4688.238669318133	2
0	14019	4692.248308607037	1
0	14025	4692.589890997541	0
0	14039	4697.981407592934	1
0	14043	4699.126207770311	2
0	14052	4704.805964178086	1
0	14058	4705.498431635617	2
0	14061	4708.542913294385	1
0	14068	4710.680368933259	2
0	14069	4712.913716611369	1
0	14074	4713.642111595903	0
0	14090	4720.958350318801	1
0	14093	4724.013980140584	0
0	14115	4725.991212867099	1
0	14120	4727.596871689523	2
0	14121	4728.246400536715	1
0	14127	4729.469770463768	0
0	14135	4731.491408738359	1
0	14139	4732.294837838324	2
0	14140	4732.66623449746	1
0	14147	4733.784001284189	2
0	14148	4735.407614088277	1
0	14155	4737.564307577533	0
0	14169	4739.378926722538	1
0	14170	4739.508014809912	0
0	14183	4743.329521818849	1
0	14185	4743.391194236156	2
0	14186	4745.292006252487	1
0	14191	4747.045329576982	0
0	14202	4754.411025398598	1
0	14208	4763.396740357827	2
0	14209	4765.850671465925	1
0	14214	4766.202910899565	0
0	14228	4769.019058211989	1
0	14231	4771.370924563896	0
0	14265	4782.457154560563	1
0	14267	4784.686920004355	2
0	14268	4784.942228303428	1
0	14273	4785.370253342529	0
0	14286	4790.551888757508	1
0	14288	4790.976865976843	0
0	14313	4796.176861499772	1
0	14314	4796.460049439462	0
0	14324	4798.689532190904	1
0	14329	4801.440471975071	0
0	14340	4802.211359388265	1
0	14343	4803.12663384577	0
0	14387	4813.837505377899	1
0	14391	4815.611505514178	2
0	14393	4816.235081770103	1
0	14399	4818.35779022174	2
0	14401	4820.573780208772	1
0	14411	4822.917779663723	2
0	14412	4824.478508206049	1
0	14417	4824.63540134029	0
0	14431	4831.125750316272	1
0	14432	4832.342906440206	0
0	14458	4838.104250722542	1
0	14460	4840.520630408728	2
0	14467	4844.907074891322	1
0	14473	4849.015953983869	2
0	14475	4850.61583248355	1
0	14481	4852.537197915466	0
0	14493	4854.741029599123	1
0	14496	4856.241505144968	2
0	14498	4856.245398908976	3
0	14500	4856.28200297099	4
0	14503	4859.842487678853	3
0	14508	4860.647535746335	2
0	14515	4861.132909036022	3
0	14517	4861.238823215227	4
0	14518	4861.439741195961	3
0	14524	4862.556694164572	4
0	14527	4864.991236920933	3
0	14532	4865.223787311971	2
0	14539	4866.85010756574	3
0	14542	4867.636815824314	2
0	14549	4870.269922120314	1
0	14554	4870.901129410485	0
0	14567	4875.568765211714	1
0	14568	4880.502814123338	0
0	14574	4883.426092576078	1
0	14575	4883.490790735625	0
0	14608	4901.445615160279	1
0	14611	4904.229940498182	0
0	14623	4907.487110596923	1
0	14624	4908.676625193957	0
0	14632	4909.213313789294	1
0	14633	4909.339775423974	0
0	14647	4913.498005631427	1
0	14648	4915.370269370981	0
0	14667	4920.56789193912	1
0	14670	4920.905267017426	0
0	14677	4921.429427180482	1
0	14678	4923.874566551712	0
0	14684	4924.579124253853	1
0	14691	4927.200317602539	2
0	14692	4927.588114058389	1
0	14697	4928.187112036776	0
0	14738	4939.548259558941	1
0	14740	4941.196443185719	2
0	14741	4943.212076195951	1
0	14750	4945.116853235597	2
0	14751	4945.682377403821	1
0	14756	4947.683739592571	0
0	14770	4952.08164035154	1
0	14773	4953.662266723697	0
0	14798	4966.042916536644	1
0	14799	4966.973200977804	0
0	14805	4966.993825618952	1
0	14806	4967.085900863031	0
0	14820	4974.973519937268	1
0	14821	4975.920933484877	0
0	14827	4976.65053468867	1
0	14830	4978.338016610677	0
0	14837	4980.386636769269	1
0	14839	4982.209316430734	2
0	14840	4982.781346143508	1
0	14847	4985.934154011996	0
0	14866	4987.522065804849	1
0	14867	4988.260927177721	0
0	14878	4992.015827315209	1
0	14883	4996.067797473178	2
0	14884	4996.896129192223	1
0	14889	4998.237418475761	0
0	14928	5013.801705647424	1
0	14931	5016.863637687095	0
0	14938	5018.751643005226	1
0	14939	5019.295890404933	0
0	14962	5026.016403444607	1
0	14964	5026.190557441247	2
0	14966	5026.413168602313	3
0	14969	5029.84575273533	2
0	14975	5029.948484462704	3
0	14979	5033.27615527069	4
0	14982	5037.62156017094	3
0	14987	5038.180867101003	2
0	14994	5038.798730687086	1
0	15004	5043.974031891731	2
0	15008	5046.593552894651	3
0	15010	5049.373331712675	4
0	15011	5050.596282138131	3
0	15017	5051.592630552446	2
0	15022	5053.377579897237	1
0	15029	5053.955034399917	0
0	15048	5059.040683230003	1
0	15050	5061.292167990373	0
0	15064	5064.879192729722	1
0	15066	5066.252009006673	2
0	15067	5067.54762153334	1
0	15074	5069.7325245446	2
0	15075	5069.9561430314	1
0	15081	5070.048260286536	2
0	15082	5070.74690204464	1
0	15090	5073.297094984165	0
0	15117	5076.200607180486	1
0	15120	5076.691687896131	0
0	15135	5082.054424155326	1
0	15139	5084.081432778181	2
0	15145	5090.78410834203	3
0	15147	5091.02695146679	4
0	15148	5092.919612493142	3
0	15154	5096.845672268494	2
0	15160	5098.132142309999	1
0	15166	5100.458531247345	0
0	15178	5103.585294396906	1
0	15179	5105.291872330392	0
0	15198	5109.704506578668	1
0	15208	5112.806840397412	2
0	15209	5112.845628061183	1
0	15215	5113.930200289465	2
0	15217	5116.956370590257	1
0	15223	5119.687517711596	0
0	15234	5122.181698245305	1
0	15238	5123.527191611145	0
0	15244	5125.187749496891	1
0	15246	5125.299704146274	2
0	15250	5128.563645982809	1
0	15256	5130.112210133742	0
0	15276	5138.695708441938	1
0	15278	5139.664143924603	2
0	15281	5141.530772631052	1
0	15286	5142.912923539293	0
0	15311	5162.125195215783	1
0	15312	5162.947987043345	0
0	15318	5163.198561976568	1
0	15319	5163.430772336376	0
0	15325	5163.974368550829	1
0	15326	5164.82287765613	0
0	15350	5174.048484056167	1
0	15352	5174.864096050316	0
0	15361	5177.244655514792	1
0	15362	5177.275511190016	0
0	15369	5179.270425630584	1
0	15370	5179.271717874385	0
0	15395	5186.422620381895	1
0	15398	5188.279212629228	0
0	15408	5190.212260428748	1
0	15410	5191.270881033684	2
0	15414	5195.541817392345	3
0	15416	5196.349835796967	4
0	15421	5199.505619254895	3
0	15427	5201.81778647007	2
0	15433	5202.710990653098	1
0	15439	5204.769034406379	0
0	15458	5219.126971240757	1
0	15460	5221.269326776391	2
0	15464	5224.395390030638	3
0	15466	5225.050500237415	4
0	15467	5226.399811399399	3
0	15473	5226.916461652638	4
0	15477	5228.882812191755	5
0	15480	5229.707016877122	6
0	15482	5229.858684937981	7
0	15483	5230.703697190491	6
0	15490	5233.033669577514	7
0	15491	5233.211685962032	6
0	15497	5234.935654485836	5
0	15502	5236.866466570717	4
0	15512	5241.022429978083	3
0	15517	5241.343917795132	2
0	15522	5242.242012367081	1
0	15531	5242.640315862683	2
0	15537	5244.778263778941	3
0	15538	5246.079395518988	2
0	15544	5246.876383910586	1
0	15549	5247.147948170161	0
0	15562	5254.252827869088	1
0	15566	5256.58397623486	2
0	15567	5257.075079784239	1
0	15575	5259.201738171342	0
0	15582	5259.737116357149	1
0	15584	5262.152853019884	2
0	15585	5262.20048652676	1
0	15590	5262.547984818446	0
0	15611	5266.898166357981	1
0	15613	5272.431305647914	2
0	15619	5278.654340835104	3
0	15621	5280.384860791368	4
0	15627	5286.609100625935	5
0	15628	5286.609418199188	4
0	15638	5289.678932215179	3
0	15644	5289.919932729698	4
0	15645	5289.995507857908	3
0	15651	5291.250781538479	4
0	15656	5293.736442499629	5
0	15657	5294.458260233628	4
0	15662	5294.849243062028	3
0	15672	5297.805943464203	2
0	15678	5298.449819190074	3
0	15681	5299.321422793228	4
0	15682	5300.306459407574	3
0	15689	5301.503892602105	4
0	15692	5302.026496984037	3
0	15699	5305.489947018454	2
0	15705	5305.983270606289	1
0	15710	5306.850110517013	0
0	15718	5308.680111875718	1
0	15720	5309.128575333078	0
0	15735	5314.184022888042	1
0	15736	5314.29761937182	0
0	15779	5327.926099160067	1
0	15781	5328.695076330944	2
0	15784	5330.676190690795	1
0	15791	5331.452457501632	2
0	15793	5332.3190766678	1
0	15798	5332.658419048171	0
0	15817	5337.285197743764	1
0	15821	5340.170078968235	0
0	15827	5340.289143401366	1
0	15830	5342.12271038662	2
0	15831	5343.604474055717	1
0	15836	5344.225914558059	0
0	15842	5345.322491520062	1
0	15844	5346.422731831307	2
0	15845	5347.06263145117	1
0	15850	5347.499167545153	0
0	15856	5350.272654380263	1
0	15858	5350.969755784579	2
0	15860	5351.270052776766	3
0	15863	5353.601273106588	4
0	15866	5355.559334454683	5
0	15869	5362.150946379527	4
0	15877	5362.710793045449	5
0	15879	5363.551724986541	6
0	15882	5364.220952373474	7
0	15883	5365.457275131519	6
0	15888	5366.215364304043	5
0	15894	5366.440280132769	6
0	15898	5367.243586101703	5
0	15907	5369.971151590131	6
0	15909	5373.064884226062	7
0	15910	5374.136370930672	6
0	15915	5374.432677616887	5
0	15924	5377.869392356667	6
0	15926	5378.285478866022	7
0	15927	5379.359211837576	6
0	15932	5379.541413296559	5
0	15938	5379.84279395616	6
0	15939	5380.429316417532	5
0	15944	5384.706028875239	4
0	15948	5384.890157443768	5
0	15953	5386.900114357443	4
0	15960	5388.43685169412	5
0	15961	5389.187873488072	4
0	15971	5391.136530897489	3
0	15976	5392.831845326794	2
0	15981	5394.047486700683	1
0	15991	5398.15823373673	0
0	16012	5403.024084719186	1
0	16015	5405.157247787974	0
0	16023	5407.03003724946	1
0	16024	5408.202151328798	0
0	16040	5411.202814653401	1
0	16043	5411.667010727678	2
0	16044	5411.850486636713	1
0	16052	5416.401091853453	0
0	16059	5417.423788789068	1
0	16060	5417.727631607493	0
0	16071	5417.963594018756	1
0	16073	5419.290519466598	2
0	16080	5421.141852974965	3
0	16081	5422.127137726056	2
0	16090	5423.808939808688	3
0	16092	5425.057381785525	2
0	16099	5425.715213519651	1
0	16105	5426.690625962841	0
0	16112	5427.87625571713	1
0	16115	5428.677350997009	2
0	16116	5432.420648309154	1
0	16122	5433.699917587955	0
0	16128	5435.910479473649	1
0	16130	5435.979466372426	2
0	16132	5437.43479134829	1
0	16137	5437.722854698256	0
0	16145	5438.501858795282	1
0	16147	5442.670569533387	0
0	16159	5444.010452556602	1
0	16160	5444.440890274663	0
0	16181	5449.629102128535	1
0	16183	5452.221130675229	2
0	16185	5453.304053752284	3
0	16186	5453.677186373117	2
0	16191	5453.763113034375	1
0	16197	5454.104128570742	2
0	16198	5454.507263663128	1
0	16204	5456.149791469778	0
0	16210	5456.507239363696	1
0	16211	5456.749673910035	0
0	16233	5463.671695026891	1
0	16237	5468.690997335656	0
0	16270	5484.887464797903	1
0	16273	5485.957491364549	0
0	16282	5487.407695971362	1
0	16286	5489.476146809661	2
0	16288	5490.913931305872	3
0	16291	5496.18318583255	4
0	16292	5497.209269169884	3
0	16302	5498.704766481747	2
0	16310	5499.940576016708	3
0	16313	5504.249430239176	2
0	16318	5504.411089460141	1
0	16323	5504.643128365836	0
0	16330	5505.905476678325	1
0	16332	5506.400641130198	2
0	16336	5508.273257564944	3
0	16337	5510.027163899684	2
0	16344	5510.994758477095	3
0	16345	5511.771013228529	2
0	16350	5511.930354682838	1
0	16358	5512.793604214282	2
0	16364	5516.080623263719	3
0	16365	5517.391054022492	2
0	16372	5520.058847000718	1
0	16377	5522.111681569724	0
0	16397	5527.121955335371	1
0	16398	5529.149321216194	0
0	16404	5529.15571172445	1
0	16408	5530.735812446935	2
0	16411	5532.134847110698	3
0	16412	5532.653588757735	2
0	16418	5533.65776348866	1
0	16424	5535.025903742245	0
0	16430	5536.322698162977	1
0	16433	5537.730903365359	2
0	16435	5541.320472517516	3
0	16436	5541.548253649793	2
0	16443	5544.306682311611	3
0	16445	5544.352712028444	4
0	16447	5545.454433822617	5
0	16448	5545.679338307269	4
0	16456	5549.871541484179	5
0	16457	5550.012266371865	4
0	16463	5552.41975480846	3
0	16469	5554.279459565062	4
0	16471	5554.283651525943	5
0	16473	5554.763960410677	6
0	16474	5555.229057922459	5
0	16480	5558.199864022022	4
0	16488	5560.733306097001	3
0	16493	5562.635810039112	2
0	16499	5565.750122889625	1
0	16504	5565.895892478389	0
0	16508	5566.049023277947	1
0	16514	5570.274970763885	2
0	16516	5570.590636574168	3
0	16517	5572.253501605181	2
0	16521	5574.094512184346	3
0	16525	5577.549576495346	4
0	16526	5577.618978798314	3
0	16533	5579.668408913308	4
0	16538	5581.692754340133	3
0	16543	5581.734456026643	2
0	16550	5584.375915963992	1
0	16561	5588.334652002576	2
0	16564	5593.554696344688	1
0	16570	5594.576649356095	0
0	16577	5595.434407308295	1
0	16578	5597.048038960943	0
0	16585	5600.777325213929	1
0	16587	5603.137076238661	2
0	16588	5603.487537728981	1
0	16593	5603.932695473112	0
0	16624	5607.975604596893	1
0	16628	5609.50069476656	2
0	16632	5610.586167133374	3
0	16634	5610.746991688773	4
0	16639	5613.710738252973	5
0	16641	5617.461922721399	6
0	16643	5618.917349236241	7
0	16645	5621.684513290785	8
0	16648	5622.486358262906	7
0	16654	5623.960622081278	6
0	16660	5626.006480159218	7
0	16666	5631.771904192758	6
0	16672	5635.11012201049	5
0	16677	5636.411416078599	4
0	16682	5637.741389152782	3
0	16689	5638.554655913274	4
0	16697	5640.581215420306	5
0	16698	5642.307189267135	4
0	16705	5643.495868484101	5
0	16706	5643.713756315146	4
0	16712	5643.754769929713	5
0	16717	5644.557386567924	6
0	16719	5645.378123366506	7
0	16720	5646.05890128356	6
0	16726	5649.267451203364	7
0	16727	5649.371894010965	6
0	16735	5651.739235163133	7
0	16738	5652.22229350287	8
0	16741	5652.7038892346	9
0	16746	5654.744137222789	8
0	16751	5655.882919856148	7
0	16758	5657.6854638109	6
0	16763	5658.522703665397	5
0	16769	5658.789705806711	6
0	16773	5661.044668424225	7
0	16774	5661.364565138796	6
0	16779	5661.398484535984	5
0	16786	5665.075862523251	6
0	16790	5667.72155080028	7
0	16792	5667.739345565423	8
0	16794	5668.700083828425	9
0	16795	5668.709078771831	8
0	16800	5669.025685897283	7
0	16809	5674.460210163556	8
0	16810	5674.547303012619	7
0	16817	5680.781784776313	6
0	16822	5681.775437311052	5
0	16828	5684.843240313794	4
0	16834	5689.412991419049	5
0	16838	5690.180040654692	6
0	16839	5690.332683116273	5
0	16845	5692.995383351045	4
0	16854	5695.085613031026	5
0	16856	5695.654594863316	6
0	16860	5695.945613634743	7
0	16863	5697.914993905007	8
0	16864	5699.461475133085	7
0	16872	5700.626721304185	6
0	16879	5701.639537849097	7
0	16881	5703.139949928793	6
0	16888	5703.657782708294	5
0	16894	5705.01169576216	4
0	16899	5705.061690861382	3
0	16905	5712.84144510972	2
0	16910	5712.860383949661	1
0	16917	5715.703914002875	0
0	16923	5716.3801158085	1
0	16925	5721.475002737363	2
0	16926	5722.678389251288	1
0	16931	5725.280185984552	0
0	16954	5738.483898572185	1
0	16955	5743.172098343212	0
0	16987	5754.970498357019	1
0	16993	5757.817349427555	2
0	16994	5758.690112562996	1
0	17001	5760.257632931909	0
0	17007	5760.261888479092	1
0	17009	5760.406849477215	2
0	17013	5761.566977292531	3
0	17016	5763.533925945006	4
0	17018	5763.861115635856	5
0	17022	5767.054331911151	4
0	17029	5769.820945360969	5
0	17031	5771.655055540444	6
0	17033	5777.094688846675	7
0	17035	5777.372947360879	8
0	17037	5777.973035204379	9
0	17040	5779.299219767795	8
0	17051	5784.381508222618	9
0	17053	5784.603442603442	10
0	17054	5786.374232474801	9
0	17060	5787.671758430099	8
0	17065	5788.027400673013	7
0	17072	5788.678353062533	6
0	17077	5788.860943317746	5
0	17083	5790.173749611458	4
0	17095	5792.430951969714	5
0	17097	5792.776358195055	6
0	17099	5795.937771555836	7
0	17100	5797.067149791272	6
0	17107	5798.343153587453	7
0	17108	5798.727527034451	6
0	17113	5798.816806085313	5
0	17119	5798.871101399834	6
0	17121	5799.595478355354	7
0	17125	5802.133716992417	8
0	17126	5806.945969580939	7
0	17133	5808.144829693824	8
0	17134	5808.1709120117	7
0	17140	5809.398482306286	8
0	17142	5809.509950609628	7
0	17148	5809.620853095688	8
0	17152	5810.358930162886	9
0	17154	5813.02585948352	10
0	17155	5813.965282249628	9
0	17162	5815.350799957452	8
0	17167	5815.66597117241	7
0	17173	5817.023299594768	6
0	17181	5819.601684338368	5
0	17188	5820.935498389096	4
0	17194	5821.709149918941	5
0	17198	5822.982814448473	6
0	17199	5823.439629466163	5
0	17210	5830.060139932508	6
0	17211	5835.117365516309	5
0	17216	5835.417655430962	4
0	17220	5835.493260048781	5
0	17225	5838.040130377767	6
0	17228	5841.029400878881	5
0	17237	5842.411484414024	4
0	17242	5842.751377189988	3
0	17247	5843.404351418199	2
0	17254	5845.47926190631	3
0	17257	5845.892993398974	4
0	17259	5846.21576365952	5
0	17263	5850.234714049798	4
0	17268	5850.986628855996	3
0	17275	5852.563603523463	4
0	17276	5852.764124196797	3
0	17282	5855.359177924375	2
0	17289	5856.191809294741	3
0	17292	5858.040968960892	4
0	17294	5859.566069853867	5
0	17297	5861.266266393775	4
0	17303	5861.335453610551	3
0	17308	5863.044498915468	2
0	17315	5865.818891228324	1
0	17320	5866.072510390153	0
0	17324	5866.100442512532	1
0	17328	5867.393581712665	2
0	17336	5874.400072558019	3
0	17337	5875.964077091026	2
0	17346	5879.425218326453	3
0	17350	5883.93219824862	4
0	17353	5885.542723356809	3
0	17359	5885.993571430619	2
0	17365	5886.810997045169	1
0	17371	5891.690550630534	0
0	17384	5893.290890555866	1
0	17385	5893.483958003553	0
0	17400	5900.636175476321	1
0	17403	5902.05543459258	0
0	17420	5906.323805282064	1
0	17421	5908.003848807013	0
0	17455	5913.912385472909	1
0	17456	5915.36198494526	0
0	17485	5930.229414767819	1
0	17486	5931.766046398459	0
0	17492	5932.665015300218	1
0	17496	5933.428962685078	2
0	17499	5936.057431268842	1
0	17506	5937.698499906046	0
0	17533	5953.342326770743	1
0	17537	5953.802233489595	2
0	17539	5953.911605707028	3
0	17542	5955.481933747202	2
0	17548	5956.961557218873	1
0	17554	5958.203503805341	2
0	17559	5960.480731449114	3
0	17560	5960.546608155202	2
0	17565	5960.625574964637	1
0	17573	5967.157741475708	2
0	17579	5968.476800965227	3
0	17580	5968.864375149257	2
0	17586	5970.210115449681	1
0	17591	5970.788461955226	0
0	17597	5972.233616368515	1
0	17599	5972.813033309603	2
0	17602	5975.115609474106	1
0	17609	5976.38667535782	2
0	17610	5976.547558943748	1
0	17619	5979.677381775532	0
0	17626	5980.354537352653	1
0	17628	5981.146607396303	0
0	17637	5982.571656743371	1
0	17647	5991.742216016577	0
0	17663	5996.861133680617	1
0	17669	6005.745598620111	2
0	17671	6005.805294008017	3
0	17672	6006.027941433166	2
0	17677	6006.777701905654	1
0	17684	6009.367232231789	2
0	17685	6010.049510989001	1
0	17690	6010.288787137187	0
0	17698	6011.442915100187	1
0	17699	6011.704879391257	0
0	17726	6019.343267398983	1
0	17728	6020.351766689517	2
0	17729	6023.468227892066	1
0	17735	6024.066366949023	2
0	17738	6025.113281373247	1
0	17743	6025.859699894607	0
0	17754	6027.771529067404	1
0	17757	6028.920500034602	2
0	17758	6028.954421854077	1
0	17764	6030.145544588768	2
0	17766	6030.247161791532	3
0	17768	6030.771530299306	4
0	17771	6031.084384055013	3
0	17779	6032.844824869346	4
0	17781	6033.808586206201	5
0	17786	6036.709257810198	4
0	17790	6036.973613951579	5
0	17793	6037.87011620202	4
0	17798	6038.220163484194	3
0	17803	6044.136180404805	2
0	17809	6048.315226353982	3
0	17814	6051.447527595519	4
0	17821	6053.813247748083	3
0	17827	6053.894621878147	4
0	17828	6054.265691519476	3
0	17833	6054.968523684381	2
0	17839	6056.884708579048	3
0	17844	6062.429898986719	2
0	17848	6062.680718168131	3
0	17855	6068.892384214774	4
0	17856	6070.185717780015	3
0	17870	6077.926536495343	2
0	17876	6078.843356175224	1
0	17882	6079.413601523239	0
[...]
4	74859	25630.963540124012	5845.8794858224
4	74874	25633.301009864428	5841.1912744007
4	74896	25637.380001122768	5823.5196163044
4	74907	25640.156771844623	5823.7543573205
4	74921	25643.334406441629	5825.3653043095
4	74937	25649.60226939485	5824.6699188984
4	74952	25656.740242069809	5821.2094605086
4	74973	25670.06017107888	5827.762155876
4	74978	25674.961377402117	5822.334125509
4	74992	25679.700864989259	5819.108481128
4	75023	25686.954990992479	5820.6087082163
4	75235	25757.22592111044	5887.8473917802
4	75255	25760.166649283341	5890.6301120974
4	75282	25767.219776444266	5892.9046633243
4	75295	25773.184327064014	5891.5738755363
4	75302	25773.843308437511	5883.7779236367
4	75307	25775.411607455794	5861.7575733709
4	75322	25780.660421369734	5866.8185462549
4	75406	25801.020805505968	5868.5773807987
4	75411	25801.445550663648	5855.2581048351
4	75418	25804.699892629952	5847.8308650167
4	75425	25811.144856679682	5854.1601086407
4	75444	25820.721265564064	5846.271454408
4	75449	25825.695046191914	5850.8759610819
4	75454	25828.068335809292	5850.3997096794
4	75461	25831.120437589753	5836.3346819613
4	75478	25838.889774593969	5837.8168821443
4	75503	25849.120149367509	5846.2923112732
4	75508	25849.363436917905	5833.9248880044
4	75517	25852.500115923797	5836.2595273824
4	75534	25856.730975394949	5839.8407566612
4	75550	25859.207043690215	5833.5973852796
4	75557	25862.986078174072	5831.5985593637
4	75573	25868.283365558754	5834.6841769153
4	75578	25871.317395148042	5830.1481524136
4	75585	25872.998629093039	5831.383758412
4	75592	25876.442675901533	5826.3199487607
4	75599	25887.336270221076	5829.5383554725
4	75616	25893.672215724917	5835.4987580744
4	75623	25897.825722218388	5808.7218582751
4	75640	25905.61086392466	5812.4694182168
4	75665	25916.333598186204	5820.6637329501
4	75670	25918.277255136152	5820.5759142157
4	75680	25925.921056079616	5826.0619462546
4	75690	25930.535129192226	5819.0397037162
4	75725	25941.335824243596	5823.2830175589
4	75738	25945.078042474664	5826.1956932916
4	75745	25948.900790024072	5816.7002527711
4	75750	25949.652070398675	5816.8224020716
4	75760	25951.74656695019	5818.3695263074
4	75815	25968.009012000504	5831.8761602207
4	75851	25983.699297810902	5842.7534233421
4	75861	25984.959007345006	5837.4020700778
4	75867	25988.728555871654	5834.8742171252
4	75874	25990.232242775844	5829.5656727477
4	75880	25995.237306425695	5808.1880054048
4	75888	26005.216712847679	5800.8101472976
4	75897	26007.408259069535	5799.1676528497
4	75910	26015.127303300211	5804.7609639397
4	75925	26019.967412704085	5804.9744503271
4	75939	26024.266345495502	5783.9766822029
4	75960	26033.468051401374	5791.1555887012
4	76023	26060.19407372004	5813.3805052094
4	76203	26122.63298564333	5872.8372570944
4	76218	26127.352760620776	5863.3756223699
4	76229	26130.024037319863	5864.8306118631
4	76240	26130.833251862669	5860.6054988041
4	76302	26146.680870909512	5872.0758231297
4	76313	26151.193015084893	5863.2457732694
4	76355	26158.663914700623	5857.8739319207
4	76373	26166.482462365199	5861.5886220958
4	76386	26168.627419730345	5859.7013367018
4	76401	26176.996156561076	5863.0328486999
4	76453	26192.842067887787	5878.5715263866
4	76458	26194.684515166792	5873.501022875
4	76467	26200.144845117691	5874.3439046002
4	76757	26304.912968261537	5977.6034990621
4	76767	26306.084068942161	5973.3372397397
4	76772	26306.410749888444	5962.770185125
4	76786	26311.867115251687	5964.5631965434
4	76817	26318.645994825649	5958.9225696395
4	76828	26321.510252904756	5961.1438721575
4	76835	26323.581016877886	5956.6660065316
4	76848	26335.111417261554	5948.4917326135
4	76876	26344.411821730539	5947.939591354
4	76896	26348.031242434596	5951.0758379934
4	76903	26351.09555373079	5946.6288341954
4	76910	26352.236868305234	5946.4314045948
4	76916	26355.258843160637	5949.1863200027
4	76923	26358.920367270263	5948.3435994462
4	76948	26368.293805574019	5945.097281104
4	76955	26370.680296227166	5938.8630883694
4	76965	26372.544013938804	5940.7091197214
4	76997	26376.562656531775	5939.4975671482
4	77020	26381.85049660093	5943.9374423363
4	77027	26383.728327608149	5940.9440734497
4	77036	26389.037961045907	5945.2770895079
4	77119	26420.320076253012	5970.7104855227
4	77124	26421.118848907836	5968.0629840333
4	77131	26424.710476582735	5971.1657224321
4	77155	26432.455451748656	5972.6184203625
4	78023	26758.17091207185	6298.3006088438
4	78044	26769.047791290548	6307.8719867267
4	78181	26825.940855014399	6364.2101606323
4	78203	26832.562947803135	6365.4509233232
4	78208	26832.619395782478	6351.9067340994
4	78215	26835.216210108571	6347.6157705855
4	78239	26846.446461520589	6357.1482238725
4	78253	26849.682526628954	6341.4807234111
4	78266	26857.464769283422	6326.5940732053
4	78458	26934.652890710067	6396.3971241919
4	78465	26935.541672648383	6394.3857214428
4	78472	26938.653255279054	6394.7808149223
4	78509	26951.351327959308	6405.0078091023
4	78514	26954.498516791054	6395.0363637773
4	78525	26956.459567938712	6388.7374310788
4	78534	26962.979744885838	6391.3073246271
4	78623	26991.850237581933	6416.4504651481
4	78683	27014.3382278057	6435.4987816419
4	78692	27015.867166431558	6434.741235463
4	78711	27020.685437214675	6438.7574855623
4	78717	27022.928740196511	6439.1298459066
4	78736	27036.43495493091	6450.4534649996
4	78837	27062.672149434144	6473.9049442132
4	78849	27065.556827400816	6469.9086250423
4	78878	27081.763773108726	6484.7369111202
4	78915	27094.17068349154	6483.3547826452
4	78938	27101.32228354276	6485.7121621445
4	78974	27105.512288177915	6487.7591872146
4	78983	27110.172987432969	6488.6148465104
4	78988	27116.850358345947	6494.5611023327
4	79006	27124.032770671936	6483.8380075297
4	79057	27135.92326787539	6486.0746155099
4	79072	27141.764458263993	6488.6371453881
4	79077	27141.981173839314	6475.6951695429
4	79088	27145.824028152581	6454.3454898713
4	79131	27159.775993327884	6455.2324095851
4	79137	27161.000087682852	6450.7366158438
4	79157	27171.394945452893	6457.9968999934
4	79269	27201.91258600617	6485.3373459984
4	79324	27220.55734995413	6499.5749266168
4	79332	27224.039776867354	6493.4152192583
4	79356	27227.475526967098	6494.9668046287
4	79368	27229.25291669964	6483.1840256193
4	79375	27232.857941274579	6479.3489015555
4	79385	27235.698030092698	6480.8068122115
4	79405	27239.192931606609	6479.9563184328
4	79437	27246.043242210231	6478.5768315757
4	79623	27303.041048797047	6535.194914059
4	79628	27304.458821929497	6530.5691926805
4	79633	27306.141501244589	6532.0994412622
4	79638	27306.816445866624	6526.7678586038
4	79647	27309.212937951896	6526.3591055443
4	79879	27387.490069872633	6597.2081305526
4	79885	27388.408307939702	6593.0490736779
4	79897	27395.160452892958	6599.4158696683
4	80101	27471.312040931046	6674.0530022576
4	80120	27474.542206480992	6667.1729279657
4	80125	27476.872286725409	6654.0485368354
4	80130	27477.107080300674	6639.9744072487
4	80135	27477.276306982245	6638.2068213582
4	80141	27478.658780881453	6630.6195359932
4	80146	27480.377208423869	6621.9095796454
4	80159	27488.337498595171	6612.3052843473
4	80283	27525.235998483686	6645.8944574719
4	80294	27529.281290310312	6645.7359821361
4	80314	27537.007373520589	6649.9878567831
4	80331	27549.848639197923	6657.6443957901
4	80351	27552.645682036431	6654.3231288919
4	80357	27554.739926205247	6648.0252403561
4	80368	27556.169337778935	6640.7227295221
4	80386	27560.892465688706	6643.3025417267
4	80400	27563.810634658921	6641.6089494961
4	80420	27569.377970116972	6647.1033844674
4	80491	27582.84116373712	6641.7071850395
4	80508	27588.205360126095	6638.760347544
4	80606	27621.943475109752	6663.1241047132
4	80611	27622.157877574311	6654.5422178224
4	80616	27622.217226572158	6649.9726439086
4	80625	27630.697728938917	6654.1001501274
4	80630	27631.635422642667	6654.8362224464
4	80639	27634.471731913994	6643.6253670618
4	80674	27641.000784825645	6648.6544267945
4	80679	27642.7129054441	6647.2367008336
4	80688	27648.353637788864	6650.4810576065
4	80749	27667.386652597744	6669.4139753406
4	80783	27675.430943985247	6673.8552162966
4	80794	27676.930844467183	6666.7417690487
4	80813	27680.872927150616	6659.451230143
4	80872	27694.867240232524	6667.0496775316
4	80899	27709.021578805997	6680.7531870447
4	81020	27747.93612188436	6713.1322577114
4	81025	27748.398711341304	6703.7495575685
4	81030	27748.501984526529	6700.777244004
4	81038	27749.666776407521	6690.3359580618
4	81069	27761.00005508817	6699.6225813687
4	81076	27762.016753968204	6694.7698250089
4	81081	27762.09757653684	6689.7573536223
4	81092	27765.114431567811	6673.602586891
4	81120	27782.209894752269	6676.048739885
4	81148	27793.618255030256	6653.7609721046
4	81153	27794.904253058194	6652.9813569388
4	81158	27795.30144401181	6648.1450611912
4	81173	27800.581363733981	6652.2225408794
4	81220	27811.036413971929	6661.2533308464
4	81227	27814.28205855161	6652.1608641762
4	81245	27822.955749763763	6655.2808709555
4	81348	27850.512615158587	6679.2229255346
4	81353	27850.693622068107	6678.5245650079
4	81358	27852.140291286095	6675.0736317824
4	81371	27858.072031616724	6680.4866725573
4	81395	27863.911629795016	6684.8878561436
4	81426	27870.606289744865	6679.509374263
4	81433	27872.567337393911	6677.8668198386
4	81438	27873.902963016795	6678.2753345707
4	81445	27877.163374041174	6672.37189957
4	81450	27881.794087249538	6673.9560100672
4	81461	27889.951569555179	6681.0195910388
4	81697	27973.045642420263	6763.3708525343
4	81705	27973.950552718435	6745.1556796692
4	81717	27976.869199349728	6747.1187658477
4	81789	28005.848585940314	6774.7596922891
4	81795	28006.074122741784	6774.24381882
4	81800	28006.61460331777	6767.4213182652
4	81805	28010.411504828018	6770.1684342182
4	81812	28010.909993371414	6750.2680433142
4	81823	28022.130948998526	6753.4721533564
4	81865	28047.446117189048	6774.9412266364
4	81908	28059.648991670964	6785.8667111066
4	81915	28060.568206412541	6784.3573082152
4	81922	28065.365028280682	6780.6691199813
4	81937	28070.260439873583	6784.8903425657
4	81950	28074.723071058563	6787.6772583889
4	81957	28075.852948081282	6785.9895811789
4	81983	28084.47068070651	6787.9063100899
4	82051	28104.143533024488	6790.6796880246
4	82064	28107.463860706446	6789.0711775022
4	82095	28117.269734965827	6796.7702329238
4	82100	28119.637421446007	6798.120855231
4	82109	28123.16265762419	6798.5889369816
4	82138	28128.429750193697	6796.1124670657
4	82151	28129.572796273146	6787.353563999
4	82161	28132.25351694224	6784.8612381723
4	82214	28148.783697711287	6800.3175113991
4	82219	28148.981289315085	6798.2373456067
4	82229	28152.615162635743	6799.4699243195
4	82249	28160.641238531583	6786.1561650339
4	82294	28174.792972786003	6794.1237235136
4	82301	28177.128311323525	6796.0663343313
4	82306	28177.309706073511	6793.6978991922
4	82320	28184.848263779131	6794.7539571232
4	82333	28186.149427928831	6789.1942681703
4	82348	28191.137950543332	6785.1844514289
4	82397	28209.093850536363	6802.2616609067
4	82515	28243.033370153852	6835.4316975675
4	82522	28244.482700502378	6833.3296085283
4	82534	28250.128740675201	6838.5246282226
4	82539	28252.153741619641	6836.2440082623
4	82547	28260.875257247699	6834.9697217161
4	82564	28273.335455446322	6841.4634320919
4	82679	28297.90776068064	6863.5304695938
4	82690	28302.873664862065	6868.1616689844
4	82709	28307.860187142975	6867.2818410918
4	82715	28311.434296523389	6866.7664773687
4	82724	28315.858035374191	6871.1362891921
4	82731	28320.709151279541	6869.2626692187
4	82742	28323.74451662583	6870.7483895826
4	82757	28328.832378429121	6875.071419196
4	82793	28334.778374401143	6877.3324393287
4	82804	28337.385928335415	6873.2066789383
4	82842	28357.142368370722	6891.7168934806
4	82867	28369.308303843054	6897.3784663072
4	82899	28378.201812514196	6876.3605990451
4	82904	28378.775834984763	6860.5342946897
4	82913	28387.3242913242	6867.9372165898
4	82932	28390.422485424574	6868.1890882241
4	82968	28398.951266772543	6872.4005746768
4	82975	28402.692314464012	6875.6379700291
4	82996	28410.803990358634	6878.2725190519
4	83086	28433.642883180767	6900.266216334
4	83091	28435.402317542881	6900.2336963068
4	83098	28437.823399077934	6897.1400213251
4	83112	28444.334784119083	6901.8079918199
4	83129	28446.827814664049	6888.1119972779
4	83218	28485.966296957765	6919.4293441807
4	83223	28486.266506543262	6915.8951570407
4	83230	28489.336186203239	6908.9646737413
4	83239	28495.146560453618	6913.8825021224
4	83256	28500.983286113378	6916.1831271534
4	83268	28503.613911401812	6917.4725077749
4	83282	28512.996477572724	6900.3911828621
4	83390	28540.034709962741	6924.5298842677
4	83519	28588.970794192902	6971.6293498383
4	83526	28589.187028316894	6940.7106617829
4	83567	28597.545273671215	6947.2729591038
4	83580	28605.243857952544	6952.3089974115
4	83587	28609.895715344319	6931.7423886123
4	83650	28626.591728493431	6945.7104096551
4	83659	28628.274131822851	6942.824372257
4	83671	28635.601702121708	6947.4715645607
4	83681	28640.253088373306	6948.2951335072
4	83774	28676.855322287345	6963.8380220378
4	83780	28678.586604525	6959.1221388541
4	83785	28681.797351443602	6958.7158625569
4	83790	28683.145174355015	6952.2019943012
4	83795	28684.76217806539	6942.7702468386
4	83820	28701.265837953249	6951.5213671631
4	84056	28777.119913173213	7008.9237914299
4	84063	28778.927049202378	7006.2633188847
4	84074	28781.603865107631	7002.0802664708
4	84092	28788.615878230501	7009.0091824217
4	84101	28791.291112456473	7003.9795911876
4	84138	28797.913825591564	6996.7940781937
4	84144	28800.894950377745	6994.5607889518
4	84156	28804.705682640161	6996.3688800443
4	84196	28817.530570177016	7004.9662302847
4	84201	28817.607110509718	7001.7533366457
4	84206	28817.693396300118	6983.4686230312
4	84212	28820.495620322889	6985.6014041408
4	84220	28822.356490854297	6984.6968657364
4	84229	28827.07144285366	6978.8660126919
4	84250	28829.982796380133	6972.3390008175
4	84257	28832.811042156866	6970.9005436022
4	84268	28839.639593549316	6977.5967413254
4	84278	28848.139733826244	6982.7214706816
4	84289	28849.593298870508	6983.1863586606
4	84294	28851.38962465028	6981.5824418237
4	84299	28852.008763966366	6973.7249256356
4	84308	28858.304000914796	6976.8804694719
4	84417	28898.024680341932	6997.6133959249
4	84437	28910.723551278628	7000.0643980713
4	84525	28941.055228693955	7022.3206616348
4	84532	28941.445214182434	7013.8818566473
4	84545	28945.087810801403	7014.1818539249
4	84562	28958.751103312589	7024.0509496676
4	84641	28982.989642003334	7045.3628308192
4	84650	28986.055737781198	7044.6158328268
4	84667	28990.740320898003	7048.805579831
4	84678	28991.715011124977	7037.8928381726
4	84683	28991.993978443225	7033.5487132017
4	84688	28993.573567939753	7032.4254815619
4	84696	28997.292304027491	7031.2759331368
4	84712	29007.337029630372	7037.199828504
4	84742	29013.759247118095	7041.8608124903
4	84747	29014.969788330402	7042.3451752104
4	84754	29019.941313751129	7034.2120478849
4	84763	29022.311369263406	7026.7540074389
4	84770	29023.467606016857	7016.5838878821
4	84803	29030.859734885923	7013.5394350893
4	84812	29034.900779548941	7014.8636243607
4	84823	29039.842785257666	7018.5256436559
4	84844	29049.289676096574	7025.401949821
4	84912	29078.33010536031	7052.0949617739
4	84973	29096.403114830897	7068.802716678
4	84980	29100.414119896774	7063.9239867028
4	84999	29111.680083993409	7067.2521236253
4	85029	29117.289184968797	7068.5763130354
4	85062	29127.223977703859	7077.5145758126
4	85094	29134.74014889426	7080.200201143
4	85099	29136.166108983541	7072.9894441583
4	85108	29143.707068751895	7078.3135248691
4	85125	29148.258789172345	7078.9230630103
4	85135	29150.289087893761	7068.1427736244
4	85147	29156.960142759322	7070.0240246608
4	85187	29167.563770735652	7076.3216303468
4	85203	29175.391249664939	7081.5174217151
4	85272	29202.227770794721	7102.2879850699
4	85280	29203.926663283376	7091.6812612537
4	85285	29204.876881246703	7074.64189616
4	85292	29206.270643500741	7076.0248222361
4	85307	29210.108459434361	7071.6406091606
4	85318	29216.919068866217	7071.5433427584
4	85325	29217.425719792496	7070.7094305885
4	85338	29224.865942649897	7077.8694160833
4	85500	29272.884310669356	7125.1828529436
4	85505	29273.583762515897	7119.7560492341
4	85519	29277.867678770917	7119.3154683695
4	85571	29293.164346802313	7133.8971427546
4	85579	29294.330890096028	7128.8783797201
4	85597	29297.818052964466	7126.765186929
4	85602	29299.821499026893	7120.0535283447
4	85619	29306.48898784323	7123.8326627267
4	85719	29343.729012997464	7150.5238364945
4	85774	29363.668080577867	7169.8348458811
4	85803	29367.309130691528	7173.1925635096
4	85809	29370.376068418397	7174.6698818186
4	85816	29371.992060666483	7173.695648516
4	85832	29376.395085670081	7152.3626460668
4	85846	29378.785235985264	7154.5834233969
4	85851	29380.336891451064	7152.6460360411
4	85864	29386.383768268312	7147.2808711335
4	85921	29413.372214467068	7170.7726011788
4	85930	29416.492267285426	7149.8423151457
4	85942	29421.038995622324	7149.7521761308
4	85964	29427.586644641587	7151.8928013154
4	86007	29440.876463084688	7158.472897639
4	86012	29441.086464551297	7156.1754633664
4	86017	29442.604894238443	7152.3812127927
4	86024	29447.011256062257	7156.0688650997
4	86088	29458.817364077142	7167.2017794336
4	86095	29459.761616007212	7166.8038548399
4	86110	29465.557344469212	7163.9132261522
4	86150	29480.233435514009	7157.027056106
4	86186	29491.306314986687	7167.3224368445
4	86191	29491.405639661703	7162.1335639629
4	86198	29495.779975372301	7155.828098597
4	86247	29509.313410105435	7155.1971011004
4	86253	29510.604938667927	7148.197164672
4	86260	29513.288123615088	7147.8198257284
4	86293	29522.832482739283	7155.4442927354
4	86302	29524.879097378929	7154.5262228015
4	86307	29524.974607741834	7153.475440402
4	86312	29529.393227642879	7154.4838167597
4	86327	29540.156378447028	7119.1795820155
4	86344	29543.81976687152	7111.7838064628
4	86349	29551.861861208402	7114.1887093503
4	86358	29556.022493328539	7111.5506257574
4	86375	29559.726144379953	7113.8715168085
4	86380	29560.730553843693	7107.4032160246
4	86386	29562.882357912096	7101.5747878638
4	86394	29567.50268332094	7106.0548392967
4	86415	29579.365316532943	7117.0577054577
4	86452	29588.554627495243	7118.4154575955
4	86489	29602.183530081038	7121.5531904697
4	86494	29603.690791802408	7107.5681987
4	86499	29603.874742135029	7102.8115580129
4	86504	29604.696300421447	7094.2982039169
4	86518	29607.338335317566	7093.6631335567
4	86612	29627.507812808493	7103.6403499636
4	86617	29628.793819637567	7104.6702014818
4	86622	29629.808243071215	7103.3816248672
4	86629	29632.2020153808	7104.2623854778
4	86642	29635.584142377039	7104.1838745547
4	86649	29643.552923730238	7111.2833557344
4	86670	29653.25601918246	7119.8833642092
4	86675	29655.875546662838	7119.4078671825
4	86688	29663.977342249417	7125.7360120623
4	86711	29667.525713487815	7121.7294273538
4	86721	29670.628944362882	7111.761063378
4	86774	29688.501841416439	7129.1518951779
4	86781	29691.985627539804	7130.6169150232
4	86786	29692.183977826315	7130.2911477742
4	86801	29698.341857883323	7135.0533212705
4	86951	29731.257659628871	7167.1027365792
4	87157	29792.82810039455	7225.7031198207
4	87173	29801.306515421899	7233.7898357196
4	87189	29804.727206816482	7228.1475748019
4	87203	29807.505483803975	7228.6523823028
4	87210	29808.629999567271	7225.8852352684
4	87221	29809.175976139289	7221.0614082556
4	87226	29813.900869516531	7213.7504320858
4	87231	29815.006808719491	7212.304024444
4	87236	29818.999371606586	7216.2789125726
4	87243	29826.312511409144	7221.9391756707
4	87266	29834.373781283234	7229.5408575776
4	87343	29853.076511354401	7239.8265226397
4	87356	29856.531471275961	7241.7157749025
4	87370	29857.27585671498	7224.3082971609
4	87381	29865.227941532651	7225.9292713859
4	87403	29869.721522621743	7229.8709224447
4	87417	29872.891820206938	7232.539895817
4	87434	29876.936784810702	7232.0165617923
4	87439	29876.998162910906	7227.4548858836
4	87448	29882.800979667284	7228.7680097661
4	87476	29894.576353507104	7238.1376135027
4	87481	29896.167629303036	7236.0394471913
4	87496	29899.476291567391	7234.8933049172

