version 2
run Third-n2-7-20191016-17:04:41-14952
attr configname Third-n2
attr datetime 20191016-17:04:41
attr experiment Third-n2
attr inifile omnetpp.ini
attr iterationvars ""
attr iterationvarsf ""
attr measurement ""
attr network org.omnetpp.queueing.Pizza
attr processid 14952
attr repetition 7
attr replication ""
attr resultdir results
attr runnumber 7
attr seedset 7
param **.PS.maxInventoriedPS 2
param **.U1.interArrivalTime exponential(4s)
param **.U2.interArrivalTime exponential(6s)
param **.PS.serviceTimeForInventoryU1 exponential(1.4s)
param **.PS.serviceTimeForInventoryU2 exponential(1.4s)
param **.PS.serviceTimeDirectU1 exponential(1.8s)
param **.PS.serviceTimeDirectU2 exponential(1.8s)
param **.PS.probabilityProducing 0.8
param **.CS.serviceTimeU1 exponential(2.3s)
param **.CS.serviceTimeU2 exponential(2.3s)

vector 0 Pizza.EntryQueueU1 queueLength:vector ETV
attr interpolationmode sample-hold
attr title "queue length, vector"
vector 1 Pizza.CS queueLength:vector ETV
attr interpolationmode sample-hold
attr title "queue length, vector"
vector 2 Pizza.EntryQueueU2 queueLength:vector ETV
attr interpolationmode sample-hold
attr title "queue length, vector"
vector 3 Pizza.sink lifeTime:vector ETV
attr interpolationmode none
attr title "lifetime of arrived jobs, vector"
attr unit s
vector 4 Pizza.sink lifeTimeU1:vector ETV
attr interpolationmode none
attr title "lifetime of arrived jobs, vector"
attr unit s
vector 5 Pizza.sink lifeTimeU2:vector ETV
attr interpolationmode none
attr title "lifetime of arrived jobs, vector"
attr unit s
0	0	0	0
0	14	6.37254240671	1
0	20	9.46559952548	2
0	22	9.828553224905	3
0	24	10.127667818756	4
0	29	12.302249280922	5
0	30	12.428367818012	4
0	39	13.53134411258	3
0	44	14.083382751486	2
0	54	20.426423279617	3
0	55	21.003944443883	2
0	61	21.60333876879	3
0	62	21.605988295763	2
0	68	22.368236305335	3
0	73	27.122095349967	2
0	81	29.665152252117	1
0	87	31.18087603745	0
0	96	33.466877395858	1
0	100	35.289011183144	2
0	103	38.1292132305	1
0	108	38.996013995847	0
0	128	42.567622573731	1
0	130	45.025654068428	2
0	133	47.173164324172	1
0	139	47.297652547936	2
0	146	56.773546459316	3
0	147	57.028124390502	2
0	155	58.640628913742	1
0	161	60.342725884724	0
0	170	62.179091701936	1
0	174	62.566291194349	2
0	179	65.538546103239	3
0	180	65.827432900435	2
0	188	68.469170999651	1
0	193	69.085655746891	0
0	199	70.876002989415	1
0	203	71.496204725021	2
0	205	73.872340559482	3
0	206	76.79428771867	2
0	213	81.418403035445	3
0	215	81.980560963168	4
0	216	82.96835441368	3
0	222	84.398380498916	2
0	228	85.022477502474	3
0	230	85.582453577334	2
0	236	85.611265696005	3
0	239	86.746559486108	2
0	245	87.040359900435	3
0	247	88.113738924963	2
0	255	89.975250727324	3
0	256	91.774309283367	2
0	265	92.931094932275	3
0	267	93.809571361061	4
0	268	95.464569723469	3
0	274	98.304292085491	4
0	275	99.171792586954	3
0	279	99.5531446163	4
0	281	100.634809841993	5
0	283	100.800831296152	6
0	287	102.665470201792	7
0	292	104.615884124565	8
0	293	105.694840886091	7
0	298	106.060929008253	6
0	302	106.6492375744	7
0	307	110.418276895777	6
0	313	110.949776914246	7
0	318	114.61348445262	8
0	320	114.783331972493	9
0	321	117.030505665365	8
0	326	118.687229965103	7
0	333	119.941121164649	6
0	342	121.66989931414	7
0	343	121.734359354738	6
0	349	123.737599895616	7
0	350	123.766713359853	6
0	359	127.61468304114	5
0	364	128.198202465112	4
0	371	129.444804495256	3
0	380	130.984934953377	2
0	388	134.65184726633	1
0	393	135.077915624036	0
0	397	135.113716793238	1
0	402	138.672849386684	0
0	409	143.486286327709	1
0	411	144.606547655996	0
0	431	150.95252411845	1
0	433	151.097225356496	2
0	436	152.693388268931	1
0	441	152.798726455232	0
0	448	153.583410989374	1
0	450	153.846356358954	2
0	451	155.138814723355	1
0	459	157.107777774698	0
0	471	157.895652945285	1
0	473	159.317871342799	2
0	474	159.717768334733	1
0	488	168.316664691957	0
0	500	170.615852064036	1
0	501	172.351393416337	0
0	514	178.661459829694	1
0	519	181.079516218157	0
0	530	181.823057453871	1
0	531	182.050523158286	0
0	537	182.119106462436	1
0	538	182.514181611725	0
0	544	184.284930002034	1
0	551	187.07526339171	0
0	557	187.277329716597	1
0	560	188.132619297036	2
0	563	189.034803905017	1
0	568	189.566177281823	0
0	574	189.883607846162	1
0	575	190.09927630298	0
0	597	196.92682773042	1
0	599	197.705890129626	2
0	600	197.745945008002	1
0	605	199.522063513012	0
0	618	201.327502107295	1
0	620	202.402488173497	0
0	634	209.636144796389	1
0	635	210.76036151235	0
0	641	210.907037909645	1
0	643	212.831532756305	0
0	652	214.665750457911	1
0	656	219.733911238842	0
0	662	219.775882450743	1
0	664	220.157672163431	2
0	665	220.579552943513	1
0	671	221.289212649819	2
0	673	221.674837105083	3
0	678	223.197355414368	2
0	684	223.45175621958	1
0	690	224.063258237833	2
0	692	227.35644328097	1
0	698	228.943662642435	0
0	724	235.152860852809	1
0	734	242.659688195782	2
0	737	243.048601510023	3
0	738	246.69093892819	2
0	744	247.057667996141	3
0	746	247.546034534724	2
0	751	248.069374698631	1
0	759	248.324208693496	2
0	762	248.560040372827	3
0	765	251.482225689311	4
0	770	253.261151420614	3
0	778	255.158523621388	2
0	783	256.103897224723	1
0	789	256.772985344589	2
0	791	257.264884521008	3
0	794	259.081419866434	2
0	802	260.943484165682	1
0	807	261.855310806207	0
0	831	271.352653714	1
0	833	272.050226589145	2
0	836	273.24862853728	1
0	842	273.663308565678	0
0	859	275.707073171733	1
0	863	280.760008592881	2
0	864	281.841602130357	1
0	870	281.990604456213	2
0	871	282.065051404776	1
0	876	282.436748693359	0
0	880	283.26184706032	1
0	882	283.964978999995	2
0	885	285.87643757665	1
0	891	286.491103209239	0
0	919	302.660600132199	1
0	920	303.49560335451	0
0	926	305.758521051698	1
0	930	311.572768877822	0
0	937	312.687477597296	1
0	944	316.271931528278	0
0	964	320.819492744501	1
0	966	321.561127877768	2
0	970	322.647506047832	3
0	973	323.777163650198	2
0	978	324.94318895075	1
0	985	326.432350245167	0
0	992	327.017121511455	1
0	993	328.367898594427	0
0	999	328.536586477829	1
0	1006	330.751201695195	0
0	1010	331.508483945737	1
0	1016	337.029224137344	2
0	1017	337.620623903053	1
0	1023	339.113125665519	0
0	1032	341.514021872746	1
0	1034	341.682196878933	2
0	1040	344.741558752888	1
0	1046	345.967271686304	2
0	1052	350.38225678635	1
0	1060	351.500309411864	2
0	1063	352.899170032391	3
0	1064	353.486254366118	2
0	1069	353.74959346554	1
0	1076	356.671934357567	2
0	1080	360.847629033223	1
0	1091	363.26855203142	2
0	1092	364.556122353051	1
0	1099	371.073330065256	2
0	1100	372.256583504441	1
0	1106	372.256963744176	2
0	1111	372.894025779078	3
0	1114	377.088812061547	2
0	1122	381.336984321688	1
0	1127	381.346804131979	0
0	1142	386.746509647825	1
0	1144	386.766849440268	2
0	1147	389.776690159809	1
0	1153	390.536384214779	0
0	1159	390.825591474764	1
0	1163	392.502590923629	2
0	1164	392.543200421349	1
0	1169	392.779464757736	0
0	1175	397.486567175347	1
0	1179	401.419166837457	2
0	1181	403.702730171874	1
0	1186	404.636747449225	0
0	1193	406.65367394466	1
0	1195	410.663100700025	0
0	1209	412.496046085333	1
0	1211	412.614463256256	2
0	1213	413.904264994438	1
0	1220	414.348080493781	2
0	1222	414.824173265861	3
0	1224	415.127073352822	4
0	1225	423.043662886289	3
0	1231	423.920834750105	4
0	1232	424.656241641314	3
0	1240	424.937248378852	4
0	1242	426.528775541237	3
0	1250	431.658891644393	2
0	1255	432.150271201555	1
0	1261	437.452018756136	2
0	1262	438.134625764577	1
0	1269	440.987707378251	0
0	1301	462.704712060985	1
0	1304	464.039439377716	0
0	1310	465.085021819707	1
0	1313	466.824761547157	2
0	1314	467.250709157034	1
0	1320	468.699388651861	2
0	1322	470.654270844407	1
0	1328	471.311900883191	0
0	1344	475.611093721532	1
0	1346	475.76272687123	2
0	1348	480.54744138737	1
0	1353	481.080609010113	0
0	1368	483.316054481556	1
0	1371	484.228747144989	2
0	1374	488.071456800044	1
0	1379	489.289027383389	0
0	1387	492.146891994546	1
0	1389	493.654166816356	2
0	1390	494.935543545144	1
0	1396	495.48555401582	2
0	1399	499.384271097821	1
0	1404	499.689742768147	0
0	1438	512.424462692547	1
0	1440	512.51174465055	2
0	1441	515.255229727937	1
0	1446	515.500675739702	0
0	1457	518.532353034447	1
0	1459	519.446253878978	2
0	1470	527.13796156384	1
0	1480	530.466954561762	2
0	1483	531.50961807642	1
0	1488	531.785957740307	0
0	1495	533.36507875649	1
0	1496	534.21143256236	0
0	1535	547.123165455705	1
0	1536	548.337812451443	0
0	1550	550.394927093533	1
0	1551	557.202990336921	0
0	1562	560.349880869238	1
0	1566	563.003093446981	0
0	1585	568.32183258321	1
0	1586	568.37717548005	0
0	1595	570.598337508623	1
0	1599	574.119843016716	2
0	1600	574.382467709146	1
0	1605	575.020941780113	0
0	1620	577.265478574778	1
0	1621	577.847689970099	0
0	1628	579.117689978512	1
0	1629	582.414605993103	0
0	1641	583.967086180657	1
0	1642	584.411028266252	0
0	1654	589.786599221247	1
0	1655	589.874811088122	0
0	1672	594.849268575245	1
0	1674	595.378136223283	2
0	1675	597.679684884828	1
0	1680	597.694398546199	0
0	1695	601.483374715474	1
0	1699	601.919818089893	2
0	1700	602.947735800043	1
0	1706	605.48593093513	0
0	1717	606.221216711507	1
0	1720	606.751551775616	2
0	1724	612.82136637566	3
0	1726	614.131580159314	4
0	1727	614.318436367592	3
0	1736	615.514252438932	2
0	1744	615.763224115832	3
0	1747	620.416291954321	2
0	1752	621.394586516245	1
0	1758	622.003643495726	2
0	1759	622.788432058801	1
0	1764	625.17633818752	0
0	1772	629.146924543474	1
0	1773	629.641204890566	0
0	1777	630.718021990366	1
0	1779	630.851014500952	2
0	1783	633.24174469502	3
0	1784	633.402352830903	2
0	1791	634.105693784942	3
0	1793	634.617024430957	4
0	1795	635.277008265401	5
0	1800	636.965926045336	4
0	1806	637.467936332903	5
0	1809	638.280985293426	4
0	1813	639.642886788089	5
0	1815	640.661822402091	6
0	1817	641.885336302228	7
0	1820	642.528760611142	6
0	1824	644.479041801938	7
0	1827	645.835847440689	6
0	1833	648.24618535164	7
0	1837	649.780105720552	8
0	1838	650.268528534404	7
0	1845	653.133180415111	6
0	1852	657.343531653447	5
0	1862	661.133746326912	4
0	1868	661.588030141873	5
0	1870	663.229784277304	4
0	1875	663.553212926217	3
0	1884	666.105912450529	2
0	1890	666.694935013934	1
0	1896	667.641630601746	2
0	1897	669.29015836824	1
0	1904	671.68038055949	0
0	1913	676.403075096773	1
0	1914	676.46927188492	0
0	1930	678.335145342975	1
0	1936	678.783416224576	2
0	1941	680.559283158777	1
0	1947	683.657438897965	0
0	1964	689.565899761087	1
0	1969	692.100394046375	0
0	2017	704.886178148875	1
0	2020	705.559660531767	0
0	2028	708.855756210584	1
0	2029	710.420698899402	0
0	2035	710.471046580676	1
0	2038	712.075562486881	0
0	2046	712.405299025929	1
0	2049	713.863642436619	2
0	2050	715.325105771547	1
0	2056	715.546511774393	2
0	2059	716.202325551654	3
0	2060	718.096712678468	2
0	2065	719.272554895469	1
0	2071	720.183373797195	2
0	2073	721.142047680476	3
0	2076	724.973695002017	2
0	2086	728.032829736098	3
0	2088	728.073882513763	4
0	2089	729.266183814007	3
0	2095	730.421664432799	2
0	2102	733.165850647046	3
0	2103	733.581315616832	2
0	2108	734.354114932251	1
0	2115	736.695827969729	0
0	2140	743.386892924093	1
0	2142	744.002597573475	2
0	2146	744.693624180813	3
0	2147	745.401885582062	2
0	2153	746.227072420177	1
0	2158	746.362406263927	0
0	2166	748.711125444708	1
0	2168	750.10955667823	2
0	2170	751.536667058195	3
0	2173	752.309931931875	2
0	2179	753.402887822339	3
0	2181	754.284142721586	2
0	2188	757.320377211531	1
0	2193	759.788897000035	0
0	2200	760.145837705096	1
0	2202	762.246742883326	0
0	2217	763.344396151657	1
0	2219	764.901394968769	2
0	2222	765.993583484246	1
0	2229	767.633242117985	2
0	2230	768.950065091985	1
0	2237	770.553894133243	2
0	2238	771.88049094739	1
0	2244	773.644962826101	0
0	2262	776.910678369878	1
0	2263	777.18242022249	0
0	2290	784.124508776886	1
0	2294	787.556820273222	2
0	2295	788.430884457334	1
0	2300	788.990490583602	0
0	2315	794.389088264728	1
0	2319	795.924163051375	0
0	2346	802.722890230002	1
0	2349	803.523509021789	0
0	2355	804.098594908695	1
0	2357	805.765846783649	0
0	2371	810.936287750109	1
0	2373	813.779001195814	2
0	2376	814.761103754508	1
0	2382	815.975262412626	0
0	2393	817.16617364756	1
0	2399	821.034533331067	2
0	2402	822.346029025943	1
0	2411	824.88862364769	2
0	2412	825.716395054046	1
0	2420	827.696232654078	0
0	2451	835.829297622599	1
0	2457	841.167966277451	2
0	2461	841.665784903519	3
0	2462	841.677425566937	2
0	2468	842.248855267916	1
0	2474	843.361368981149	2
0	2479	850.66000756142	1
0	2485	850.694435267943	2
0	2486	851.168520380656	1
0	2491	851.791325336521	0
0	2495	852.875937118656	1
0	2498	854.425955003318	0
0	2504	854.869401166167	1
0	2507	856.37807236243	0
0	2529	863.835964737283	1
0	2530	863.963773537239	0
0	2536	865.835424046694	1
0	2537	866.695856154322	0
0	2552	872.843826621528	1
0	2554	875.154666586855	2
0	2555	876.014446183282	1
0	2562	876.202030448227	2
0	2563	876.270954514594	1
0	2571	876.72272070887	2
0	2572	876.895411406894	1
0	2578	878.240876053746	0
0	2600	883.269991765688	1
0	2601	883.601766718865	0
0	2625	896.154894223177	1
0	2627	896.655506924651	2
0	2633	900.598925018664	3
0	2634	901.67722436305	2
0	2643	903.725756882934	3
0	2647	905.457253933513	4
0	2648	906.055614314268	3
0	2658	909.867505286502	2
0	2665	911.01413388482	3
0	2667	911.305119120558	2
0	2672	911.986723412016	1
0	2677	912.350895047546	0
0	2683	913.532157016161	1
0	2686	914.090108887957	0
0	2698	920.599618431435	1
0	2699	922.008800632488	0
0	2707	926.547902476529	1
0	2708	927.933306623315	0
0	2714	928.086784850969	1
0	2719	931.449698912869	0
0	2725	931.732845861513	1
0	2726	932.159480128196	0
0	2747	938.466222389827	1
0	2752	940.777337033863	0
0	2758	942.059396619108	1
0	2759	943.663589556889	0
0	2794	960.916478394426	1
0	2797	962.085270978153	0
0	2819	967.260014480396	1
0	2821	969.038494835048	2
0	2823	969.942222637497	3
0	2824	970.242307606769	2
0	2830	972.15966471315	3
0	2832	973.012316346981	2
0	2838	973.819854610485	1
0	2843	974.827835367598	0
0	2873	982.758712804594	1
0	2878	984.182369967586	0
0	2911	995.298093531954	1
0	2913	995.684478778079	2
0	2916	997.27872993689	1
0	2922	998.538040994845	0
0	2939	1001.435907161193	1
0	2943	1002.348602560142	2
0	2947	1002.614420066502	3
0	2948	1005.72464052727	2
0	2958	1007.988426835093	3
0	2959	1009.228886044212	2
0	2965	1009.682537127916	3
0	2969	1015.131270566254	2
0	2974	1016.04063099023	1
0	2979	1016.05111708438	0
0	3026	1033.466050708277	1
0	3027	1036.368233310421	0
0	3054	1040.28754435732	1
0	3055	1041.360047807354	0
0	3062	1042.464468422483	1
0	3064	1044.870907889427	0
0	3078	1049.09721686139	1
0	3080	1049.872267893316	2
0	3084	1055.874577511155	1
0	3091	1057.753875352548	2
0	3092	1059.823798982941	1
0	3097	1061.951833123038	0
0	3103	1062.36295421817	1
0	3106	1062.689166295593	0
0	3110	1062.986702405878	1
0	3113	1063.768407298823	0
0	3117	1064.594208700607	1
0	3119	1065.145600262968	2
0	3121	1066.178684054697	3
0	3123	1066.933758129214	4
0	3128	1068.315068169969	3
0	3133	1069.135797645975	2
0	3143	1072.596994863944	1
0	3149	1073.936835145071	0
0	3163	1076.787394539674	1
0	3165	1079.557599088307	2
0	3169	1081.830284889536	3
0	3171	1084.080178717366	4
0	3172	1084.552833781171	3
0	3179	1085.522060775386	4
0	3181	1088.669538769485	5
0	3183	1088.951496355769	6
0	3185	1090.673067472947	7
0	3187	1090.767686314567	8
0	3188	1090.935690094182	7
0	3193	1092.001591367632	6
0	3204	1096.305404766797	7
0	3206	1099.121397264513	8
0	3207	1099.649417491875	7
0	3214	1103.857121858958	6
0	3222	1105.50357124763	7
0	3225	1106.16884748375	8
0	3226	1107.110118507435	7
0	3234	1108.710066991362	6
0	3242	1110.097822356002	7
0	3243	1111.198879673538	6
0	3248	1112.440555679841	5
0	3252	1112.460964939999	6
0	3257	1118.06224913105	7
0	3258	1118.067730765657	6
0	3264	1118.630986921301	7
0	3265	1118.924355856232	6
0	3275	1124.412160546983	5
0	3284	1128.465827642645	4
0	3288	1129.265274304759	5
0	3290	1129.853023410264	6
0	3297	1133.263768540694	7
0	3298	1134.986804586215	6
0	3307	1140.349789104212	5
0	3312	1141.491758816453	4
0	3319	1142.547846558288	3
0	3325	1142.573509994054	2
0	3335	1144.664492531976	1
0	3340	1144.969732674275	0
0	3368	1152.327448285975	1
0	3370	1153.039472323522	2
0	3373	1154.422738261881	1
0	3379	1154.822457803382	2
0	3381	1156.951454680154	1
0	3389	1159.823696644995	0
0	3400	1160.431988937398	1
0	3404	1162.542636216879	0
0	3416	1163.718674621336	1
0	3418	1165.207935202977	2
0	3420	1166.180252140137	3
0	3421	1166.352656538592	2
0	3429	1167.184324083267	3
0	3430	1167.452315990846	2
0	3435	1168.212086571384	1
0	3444	1171.960937011029	2
0	3446	1173.10311262365	3
0	3449	1176.797545667569	2
0	3455	1177.839643134027	1
0	3461	1179.185608617939	2
0	3466	1180.569253392922	3
0	3467	1181.155119346477	2
0	3472	1181.73726083425	1
0	3480	1182.131896947206	2
0	3482	1184.175562952794	1
0	3487	1184.57225729104	0
0	3511	1194.602981149224	1
0	3516	1197.622417716757	0
0	3540	1208.299689279256	1
0	3542	1211.183266257427	2
0	3544	1211.451277126364	3
0	3546	1211.902399075931	4
0	3549	1215.354971002203	3
0	3554	1215.724504392195	2
0	3560	1216.026923270596	3
0	3562	1216.663265364173	4
0	3564	1216.966260470018	5
0	3566	1217.016345928372	6
0	3569	1219.223174886215	7
0	3572	1220.624393050409	6
0	3580	1225.352236993443	5
0	3586	1230.693016594593	4
0	3599	1235.975650312676	5
0	3601	1237.469838489527	6
0	3603	1240.454352789331	7
0	3604	1241.947060707187	6
0	3611	1242.822596124792	7
0	3612	1244.450003706559	6
0	3617	1244.64333092173	5
0	3626	1247.250883789421	4
0	3632	1247.671393089913	5
0	3634	1248.908046432824	6
0	3638	1251.54530459482	7
0	3642	1252.792219660194	8
0	3645	1254.52635493897	7
0	3651	1255.863009168802	6
0	3658	1256.039719211279	5
0	3668	1262.120254139258	4
0	3676	1263.291071477081	3
0	3681	1264.787954779904	2
0	3686	1269.898840302767	1
0	3690	1272.553803900171	2
0	3695	1274.771107873636	1
0	3703	1275.78461806856	2
0	3704	1277.747553300892	1
0	3710	1280.881969160607	0
0	3716	1282.067572943335	1
0	3717	1284.114013194581	0
0	3733	1288.026580256846	1
0	3736	1289.580260480127	0
0	3761	1296.9331044523	1
0	3762	1299.5740415521	0
0	3778	1300.713989992181	1
0	3784	1302.27146842793	2
0	3787	1305.999189103697	3
0	3789	1306.295964432255	4
0	3793	1306.926298196617	5
0	3795	1307.835946821438	6
0	3798	1309.057662979351	5
0	3804	1310.774837507321	4
0	3809	1311.66737577038	3
0	3815	1311.849637730218	4
0	3816	1313.870032121213	3
0	3821	1315.271289195228	2
0	3838	1323.3218638741	3
0	3839	1323.56394159944	2
0	3845	1324.52843712108	3
0	3847	1325.701880705548	2
0	3852	1325.823620949432	1
0	3860	1328.56618458111	0
0	3877	1332.637283617923	1
0	3881	1338.441514805051	0
0	3893	1345.542402487217	1
0	3898	1354.957314547516	0
0	3920	1358.900988143	1
0	3923	1362.64960610923	0
0	3931	1363.108176057934	1
0	3932	1363.198449792604	0
0	3948	1371.391051730892	1
0	3949	1372.625248929519	0
0	3973	1380.975278258272	1
0	3982	1385.497370954424	2
0	3985	1388.176547934635	1
0	3991	1389.242489382937	2
0	3993	1390.451721787079	1
0	3998	1391.574258646239	0
0	4014	1393.629806553218	1
0	4016	1393.657110445758	2
0	4017	1394.427478340579	1
0	4023	1396.302271917274	0
0	4049	1401.451132904399	1
0	4051	1404.703966676757	2
0	4053	1405.407919578032	3
0	4055	1406.711126789254	4
0	4058	1410.787859770077	3
0	4063	1410.805000696611	2
0	4069	1411.067421610517	1
0	4074	1411.809058704348	0
0	4096	1418.686358552084	1
0	4099	1419.512294052451	0
0	4103	1420.063873477787	1
0	4107	1420.768820305989	2
0	4114	1424.388120200568	1
0	4122	1426.772883465837	2
0	4124	1427.730992942616	1
0	4133	1431.837675246449	0
0	4144	1433.812818461653	1
0	4145	1433.924891179286	0
0	4165	1446.115095965202	1
0	4168	1448.918922034281	0
0	4187	1456.747940586651	1
0	4189	1459.994697908336	2
0	4191	1460.549291987435	3
0	4192	1462.294696226682	2
0	4197	1463.612833539736	1
0	4208	1465.834993181697	0
0	4223	1469.511218360723	1
0	4227	1469.834875539244	2
0	4232	1471.356109680389	1
0	4238	1474.341926629388	0
0	4244	1474.660421862609	1
0	4246	1474.994239401238	2
0	4249	1478.201513494673	3
0	4250	1479.354337089444	2
0	4256	1479.569824471085	3
0	4260	1480.937786926202	2
0	4265	1481.01966521695	1
0	4271	1483.660560701331	0
0	4282	1488.178540044584	1
0	4289	1492.694095109645	0
0	4302	1496.883763770135	1
0	4304	1497.127284272801	2
0	4307	1499.375781119706	1
0	4314	1501.827516752724	0
0	4320	1502.323910382895	1
0	4322	1502.837412035761	0
0	4381	1523.063449170489	1
0	4383	1523.470074843961	2
0	4385	1524.488216505119	3
0	4389	1527.144547445302	4
0	4391	1529.034662867216	5
0	4392	1530.078613699064	4
0	4399	1530.587108589227	5
0	4401	1530.996467776135	6
0	4403	1531.261929045969	7
0	4406	1533.841584116337	8
0	4407	1536.464013046572	7
0	4412	1537.208755437809	6
0	4417	1538.397977536831	5
0	4423	1541.025890893254	6
0	4424	1541.221351047089	5
0	4430	1541.679342273456	6
0	4433	1542.624587790432	7
0	4435	1545.43294391303	6
0	4440	1546.083839526545	5
0	4448	1553.234454773689	4
0	4455	1555.569004616875	5
0	4456	1556.368680009609	4
0	4461	1559.084015529735	3
0	4465	1559.289585589659	4
0	4469	1560.080577754323	5
0	4474	1561.249581706538	4
0	4479	1561.265976914204	3
0	4486	1562.17876634053	4
0	4487	1562.227030624719	3
0	4492	1564.71080314117	2
0	4499	1565.637372974277	3
0	4500	1565.837632879652	2
0	4506	1566.042336367611	3
0	4509	1566.147780750797	2
0	4513	1566.517239342433	3
0	4521	1571.310531887322	4
0	4522	1572.098147578737	3
0	4526	1572.514788447256	4
0	4531	1576.241707300784	5
0	4533	1577.20483387675	6
0	4535	1578.917186910701	5
0	4540	1579.680358923394	4
0	4546	1579.822343453042	5
0	4549	1582.017342396173	6
0	4550	1582.123294321706	5
0	4557	1583.085871409077	6
0	4558	1584.64546932351	5
0	4563	1586.399313138285	4
0	4570	1590.669963164708	3
0	4575	1591.319409668329	2
0	4581	1593.135717441844	1
0	4589	1597.926048524447	2
0	4590	1598.137108478771	1
0	4597	1604.100981669749	2
0	4599	1607.913580483137	3
0	4603	1608.824935615992	4
0	4604	1609.51601902731	3
0	4610	1610.245011299156	2
0	4618	1612.20273774717	3
0	4624	1615.047529791428	4
0	4625	1616.483031633732	3
0	4633	1617.913227060306	4
0	4636	1618.908280822267	3
0	4643	1619.566246085433	4
0	4647	1622.016737871377	5
0	4648	1622.556909449097	4
0	4654	1624.500786873248	3
0	4659	1625.776480899691	2
0	4664	1626.147815896965	1
0	4671	1630.283790277225	0
0	4696	1639.686939384511	1
0	4700	1640.742177549387	0
0	4717	1646.143322987417	1
0	4718	1648.409834832335	0
0	4730	1652.544255606267	1
0	4732	1653.068571585788	0
0	4738	1654.174784738179	1
0	4740	1654.22449748841	2
0	4743	1655.914360939839	1
0	4749	1657.074462584578	2
0	4751	1658.167258292678	1
0	4756	1658.325102242918	0
0	4767	1661.065137452957	1
0	4771	1662.826652359537	0
0	4784	1666.984993030143	1
0	4785	1667.476743170876	0
0	4791	1667.578520259486	1
0	4795	1669.372302481382	2
0	4796	1669.711645332555	1
0	4801	1670.067170195961	0
0	4808	1674.116399024595	1
0	4809	1674.718435660082	0
0	4823	1677.921896560524	1
0	4824	1678.977067343481	0
0	4837	1679.751877969095	1
0	4839	1680.148981138417	2
0	4843	1683.105196480746	1
0	4852	1683.908669307943	2
0	4854	1683.97550498827	3
0	4856	1688.873723762678	4
0	4859	1689.765818101238	3
0	4864	1690.033899847549	2
0	4874	1692.789322091423	3
0	4879	1694.19119530527	2
0	4886	1696.158513046442	1
0	4898	1700.062053004586	2
0	4903	1702.642645771556	3
0	4904	1704.750364895076	2
0	4910	1706.290271289608	1
0	4917	1711.156767009146	0
0	4926	1712.993572881947	1
0	4928	1716.566223032301	0
0	4940	1720.481070921894	1
0	4943	1722.48857746661	0
0	4951	1724.350166662018	1
0	4952	1724.560500932499	0
0	4981	1729.021167745578	1
0	4982	1729.785259708424	0
0	4990	1730.509377684103	1
0	4991	1731.451340039282	0
0	4997	1732.082104126925	1
0	4998	1732.690961523458	0
0	5007	1735.311703712624	1
0	5009	1736.076013186639	2
0	5014	1739.816345938106	1
0	5019	1740.641411389005	0
0	5027	1743.30167016049	1
0	5031	1748.208193082215	2
0	5033	1749.263093124538	1
0	5048	1750.613814787076	2
0	5050	1751.573069403853	3
0	5051	1754.80737696193	2
0	5057	1756.996342885631	1
0	5064	1757.832628179719	0
0	5074	1760.231073642707	1
0	5076	1761.280349755464	0
0	5106	1765.520462255079	1
0	5107	1770.940077204785	0
0	5113	1771.527921908782	1
0	5118	1772.858947282365	2
0	5119	1774.247971808043	1
0	5125	1776.599902338999	0
0	5145	1783.887999233397	1
0	5147	1784.368773984046	2
0	5149	1784.483036674334	3
0	5153	1792.640963297536	4
0	5155	1796.054823211292	5
0	5156	1796.518128078058	4
0	5163	1797.371385117785	5
0	5164	1797.493649322651	4
0	5173	1798.310670893856	5
0	5174	1801.786715834196	4
0	5181	1804.024282425208	3
0	5187	1806.859864122691	2
0	5193	1807.006711218506	3
0	5197	1807.512063391947	2
0	5203	1807.537559533615	1
0	5208	1808.461207639543	0
0	5223	1810.987233701994	1
0	5225	1814.558962861707	2
0	5226	1815.535691275253	1
0	5232	1816.540254665852	2
0	5233	1817.33987225455	1
0	5239	1817.340163851497	2
0	5242	1817.970002625518	1
0	5246	1820.16861569774	2
0	5249	1822.032730916779	1
0	5255	1824.603369008612	2
0	5256	1824.785440790604	1
0	5262	1825.616892392301	2
0	5263	1826.423326265055	1
0	5271	1829.083586475449	2
0	5272	1829.264710297367	1
0	5278	1829.357717625016	2
0	5281	1829.747159344405	1
0	5289	1829.831686611721	2
0	5290	1829.920504901098	1
0	5294	1830.303563595136	2
0	5299	1831.166724532525	1
0	5304	1831.229406731884	0
0	5315	1832.683484058519	1
0	5317	1834.398674413922	2
0	5321	1835.926570885532	1
0	5327	1837.299847980119	2
0	5333	1840.96448439522	1
0	5341	1842.059123709569	2
0	5345	1845.587141026733	3
0	5346	1845.824341126883	2
0	5352	1846.611865812906	3
0	5353	1848.424371139002	2
0	5359	1849.535242961623	1
0	5365	1851.026158350542	0
0	5369	1851.135890629347	1
0	5378	1858.150710252475	2
0	5379	1858.877115435325	1
0	5385	1859.935291692578	0
0	5396	1861.183433150663	1
0	5401	1863.595875139641	0
0	5408	1865.515059240974	1
0	5409	1865.541990930429	0
0	5431	1875.462298195843	1
0	5432	1875.676246822771	0
0	5459	1881.845771150414	1
0	5462	1884.133741471942	2
0	5464	1885.894657065632	3
0	5467	1888.170088338107	2
0	5474	1890.087258342504	1
0	5482	1892.283263127932	2
0	5485	1893.973862503585	1
0	5492	1894.270044042789	0
0	5505	1896.187689539075	1
0	5507	1897.51346642175	2
0	5508	1898.720423611454	1
0	5514	1898.91595836488	2
0	5515	1900.138521551561	1
0	5524	1903.850067567152	2
0	5526	1905.31080719401	1
0	5531	1905.575309601822	0
0	5539	1908.590753620487	1
0	5543	1912.232477994526	2
0	5545	1912.864222618607	3
0	5546	1913.622873325467	2
0	5552	1916.457350343712	1
0	5559	1918.323988572128	0
0	5584	1922.039938567031	1
0	5587	1923.612643508855	0
0	5596	1926.039425320399	1
0	5598	1927.387658522456	2
0	5604	1933.207341550146	1
0	5609	1933.331769758753	0
0	5618	1933.897740697469	1
0	5622	1935.219441468343	2
0	5623	1935.362320702431	1
0	5628	1938.405470018581	0
0	5635	1940.283125582167	1
0	5642	1943.247450671685	2
0	5643	1945.211652179622	1
0	5652	1946.373318518699	2
0	5653	1950.846669461698	1
0	5660	1952.159837457173	0
0	5685	1955.322534061324	1
0	5690	1958.958531868262	0
0	5696	1959.723526441828	1
0	5698	1959.90598274099	2
0	5699	1960.347443991738	1
0	5705	1960.712709086105	2
0	5707	1961.751988797489	1
0	5717	1969.429368024791	2
0	5718	1973.890551898216	1
0	5726	1975.963948399624	2
0	5729	1978.096908061506	1
0	5735	1980.627771056179	0
0	5757	1985.64136818834	1
0	5758	1986.619716861096	0
0	5764	1986.665580033896	1
0	5766	1987.480114923853	0
0	5778	1988.558120649161	1
0	5783	1990.681902010446	2
0	5786	1991.2099182616	1
0	5791	1992.287897974334	0
0	5802	1993.914722275811	1
0	5805	1995.474263244773	2
0	5807	1996.398686625929	1
0	5819	2001.01730904819	0
0	5857	2016.668061826588	1
0	5859	2017.108601487343	2
0	5860	2017.755367973253	1
0	5867	2018.472387052911	2
0	5869	2018.701542516544	3
0	5870	2018.958751006772	2
0	5876	2020.277276313074	1
0	5882	2020.29569906819	2
0	5883	2021.000241438758	1
0	5889	2021.744477548508	2
0	5896	2022.558420697631	3
0	5902	2025.588040215932	4
0	5904	2026.915414405002	5
0	5905	2029.636883838909	4
0	5914	2033.229764059925	3
0	5921	2037.6702536676	4
0	5922	2037.810230112241	3
0	5930	2038.648207049959	4
0	5931	2038.691234692248	3
0	5937	2040.576824483519	4
0	5938	2040.830616605043	3
0	5945	2041.268456835658	4
0	5949	2042.836401033161	5
0	5951	2043.032016293894	6
0	5953	2044.323842254177	5
0	5959	2045.022997614809	4
0	5965	2046.737962918339	3
0	5970	2047.363871837809	2
0	5975	2047.532304461347	1
0	5982	2049.501869331843	0
0	5993	2051.751110430521	1
0	5995	2051.964661090566	2
0	6000	2053.91838061463	3
0	6002	2054.238291375431	4
0	6003	2059.3894241099	3
0	6008	2062.651442942644	2
0	6015	2064.010153705393	1
0	6020	2066.414377391117	0
0	6027	2067.53898840607	1
0	6029	2068.819666802912	0
0	6035	2069.906958599803	1
0	6037	2071.777859436561	0
0	6057	2074.396507208014	1
0	6060	2076.38118436378	0
0	6071	2080.485779929307	1
0	6074	2082.811969746202	0
0	6111	2092.769705951337	1
0	6116	2101.821441321517	0
0	6131	2104.370707954432	1
0	6132	2105.57431646735	0
0	6138	2105.752444612227	1
0	6140	2108.427456011199	2
0	6143	2110.512779283876	1
0	6148	2110.657312039419	0
0	6157	2113.819582573564	1
0	6164	2118.437066473514	0
0	6179	2128.937194300683	1
0	6182	2129.021945623042	2
0	6183	2129.214530561569	1
0	6191	2132.154296663306	2
0	6192	2132.281005420486	1
0	6202	2133.812883160057	0
0	6219	2136.117189205508	1
0	6221	2137.961367805231	2
0	6223	2140.047341840742	3
0	6224	2141.092644261121	2
0	6231	2142.889104015611	3
0	6233	2144.0047917335	4
0	6235	2144.459103235509	5
0	6236	2145.024314895923	4
0	6241	2145.133007082016	3
0	6246	2145.428416818231	2
0	6253	2147.117381322025	1
0	6257	2147.501722305615	2
0	6260	2148.290364637256	1
0	6268	2151.037497036561	0
0	6274	2152.398785214859	1
0	6278	2153.751484543223	2
0	6280	2154.378094416681	3
0	6285	2157.518681539081	2
0	6289	2159.540199857642	3
0	6293	2160.507988359876	2
0	6297	2160.645946553661	3
0	6300	2162.680521118344	2
0	6306	2164.470079057635	1
0	6311	2164.885106966399	0
0	6328	2170.346537619719	1
0	6329	2170.945523253291	0
0	6346	2176.260054257188	1
0	6347	2176.284361519498	0
0	6356	2177.982797658266	1
0	6360	2178.338578242659	2
0	6362	2180.255139187237	1
0	6369	2181.672619433956	0
0	6375	2182.097179118219	1
0	6376	2182.176230059681	0
0	6384	2184.863453793499	1
0	6387	2189.009906500964	2
0	6390	2193.380174980439	1
0	6395	2194.14253460516	0
0	6403	2196.276563364181	1
0	6407	2196.54669922945	2
0	6408	2196.638120632971	1
0	6413	2198.187700437891	0
0	6419	2200.602694911833	1
0	6421	2202.610113721561	2
0	6422	2203.089617693729	1
0	6426	2204.451334539935	2
0	6431	2209.133896084738	1
0	6440	2212.160462718806	2
0	6441	2212.685227229736	1
0	6446	2213.023857106709	0
0	6453	2216.154021864936	1
0	6454	2217.20905133086	0
0	6463	2220.266679025803	1
0	6467	2220.934518239573	0
0	6484	2223.953284757655	1
0	6486	2224.078998621489	2
0	6489	2226.646604390174	1
0	6495	2226.651980453605	2
0	6496	2226.738103516476	1
0	6503	2227.691843823717	0
0	6511	2233.256079907987	1
0	6516	2236.225768579522	2
0	6517	2236.325552693542	1
0	6523	2236.844004735834	0
0	6536	2243.597906929919	1
0	6539	2244.776416092193	0
0	6545	2244.854820114524	1
0	6548	2246.630618799796	0
0	6555	2247.114760113331	1
0	6556	2247.433712443083	0
0	6578	2255.65760085699	1
0	6580	2256.419116670544	2
0	6584	2261.258114584238	3
0	6586	2261.88011411662	4
0	6590	2262.206711510634	5
0	6591	2262.818720892417	4
0	6597	2263.055549701776	5
0	6599	2264.758070555722	4
0	6605	2265.77456620601	3
0	6611	2266.47323416689	2
0	6619	2267.143091364278	3
0	6621	2268.274634238764	2
0	6628	2274.999105602326	1
0	6636	2278.016542396946	2
0	6637	2279.557709758105	1
0	6643	2280.249075005929	2
0	6644	2285.885300510189	1
0	6650	2286.845270775775	0
0	6661	2287.682770764877	1
0	6663	2288.438985195379	0
0	6677	2291.812198475993	1
0	6682	2294.065006937228	0
0	6712	2303.837169915705	1
0	6713	2304.785747134546	0
0	6728	2312.557461621376	1
0	6730	2313.359965043728	2
0	6733	2316.380881184505	1
0	6741	2317.80149082702	0
0	6756	2320.930020870266	1
0	6761	2324.261707435157	2
0	6767	2325.609904149881	3
0	6769	2329.031344000306	4
0	6772	2332.822979290842	3
0	6777	2333.248711421866	2
0	6783	2333.390995589524	3
0	6784	2333.427885275587	2
0	6795	2339.445323512042	3
0	6796	2340.616453488167	2
0	6801	2341.005296060031	1
0	6808	2344.614530774212	0
0	6814	2345.660392630635	1
0	6816	2345.966349938475	2
0	6818	2346.81583189288	3
0	6829	2349.224453464195	2
0	6836	2351.521664038088	1
0	6843	2353.037295211763	2
0	6845	2354.117487258458	3
0	6847	2355.5591184709	4
0	6851	2358.966010459221	5
0	6853	2360.753564692076	6
0	6855	2361.071868167155	7
0	6856	2361.648592348	6
0	6864	2363.746382115169	7
0	6866	2367.427678646338	8
0	6869	2368.516885724193	9
0	6872	2372.471508533039	8
0	6879	2373.097669720487	7
0	6885	2373.384954420994	8
0	6886	2373.709972338622	7
0	6899	2377.859450265112	8
0	6901	2378.601591978068	9
0	6905	2381.774565390856	10
0	6907	2382.079636695884	11
0	6908	2384.898757414936	10
0	6913	2387.885121996378	9
0	6920	2388.745530703895	8
0	6928	2390.200313705639	9
0	6930	2390.700281130391	10
0	6932	2391.897198252363	9
0	6937	2392.151176345247	8
0	6942	2394.901776495439	7
0	6947	2396.664481951165	6
0	6952	2400.198694142537	5
0	6961	2402.122371371931	4
0	6966	2402.403223134085	3
0	6973	2403.025986853579	2
0	6979	2404.269074505972	1
0	6986	2405.904991157654	0
0	7021	2415.474329889762	1
0	7022	2416.112333793709	0
0	7029	2418.460189284565	1
0	7031	2420.21497129768	2
0	7033	2422.57415950805	3
0	7034	2425.434876091367	2
0	7039	2426.236545542879	1
0	7051	2428.776638496342	2
0	7052	2429.55115679568	1
0	7058	2431.737842871003	0
0	7064	2432.799790690747	1
0	7065	2432.883052624767	0
0	7073	2437.18481763161	1
0	7076	2440.426449574004	0
0	7088	2444.180997331622	1
0	7089	2444.217789658558	0
0	7100	2444.94482794092	1
0	7101	2445.282353019852	0
0	7130	2455.124184125472	1
0	7132	2456.614557929315	2
0	7133	2458.228090657904	1
0	7142	2461.308320238153	0
0	7151	2463.754821889681	1
0	7152	2464.323148858887	0
0	7161	2465.195032285771	1
0	7163	2467.303646924506	2
0	7164	2467.594614312228	1
0	7170	2471.150814580623	0
0	7176	2471.218696812815	1
0	7178	2473.927421121075	0
0	7205	2477.514205111439	1
0	7207	2483.076518155519	2
0	7208	2483.661095367054	1
0	7213	2483.796942154207	0
0	7239	2490.195981655533	1
0	7241	2491.537090815037	2
0	7242	2492.774904409933	1
0	7248	2494.480130812927	0
0	7261	2497.299794704724	1
0	7262	2498.333531454778	0
0	7287	2507.401680659944	1
0	7288	2507.940368975123	0
0	7297	2510.600793159352	1
0	7298	2510.629985247031	0
0	7320	2514.350205337415	1
0	7325	2515.639543980951	0
0	7348	2522.68014505086	1
0	7349	2523.231522318151	0
0	7357	2523.589380243632	1
0	7359	2523.996379569155	0
0	7383	2530.025275891731	1
0	7386	2530.820024614744	0
0	7408	2537.933740057114	1
0	7411	2539.480442164818	0
0	7418	2540.307147785952	1
0	7422	2540.807221956503	2
0	7424	2542.045492455982	3
0	7426	2543.2464009951	4
0	7428	2544.10817498633	5
0	7429	2544.804042284372	4
0	7434	2546.571144356329	3
0	7445	2550.661016961575	4
0	7446	2550.977975343245	3
0	7452	2551.743650610261	2
0	7459	2555.850037112283	1
0	7465	2555.894422034294	2
0	7467	2557.730085676054	3
0	7470	2558.439003169233	4
0	7472	2561.002149809978	5
0	7473	2563.539933463635	4
0	7479	2566.006940909045	3
0	7485	2566.884198459363	2
0	7492	2568.464704121405	3
0	7495	2570.137422966867	2
0	7501	2573.666055560571	3
0	7502	2575.033146867978	2
0	7513	2575.910237629559	3
0	7518	2578.535352209468	2
0	7523	2579.692792445483	1
0	7529	2588.877602754756	2
0	7531	2591.46202468759	3
0	7534	2593.718172707568	2
0	7547	2598.840711128515	1
0	7556	2602.035904828508	2
0	7557	2604.393972726613	1
0	7562	2604.938133929852	0
0	7579	2609.452993681136	1
0	7582	2611.370045007935	2
0	7583	2611.606459329443	1
0	7594	2615.338443854998	2
0	7595	2615.448733254012	1
0	7600	2616.070058197321	0
0	7612	2619.717402182772	1
0	7614	2619.805586904612	2
0	7618	2622.076514684816	3
0	7620	2622.314457151299	4
0	7622	2622.675370576761	3
0	7627	2623.434859984934	2
0	7633	2623.90065580298	3
0	7636	2625.003432172882	4
0	7643	2627.848730878797	3
0	7648	2630.191989253704	2
0	7654	2634.768132922333	3
0	7658	2637.05127156847	4
0	7661	2640.127195131543	3
0	7668	2640.822564843392	4
0	7669	2641.383903887054	3
0	7676	2643.943825589821	4
0	7677	2645.575837975135	3
0	7683	2646.69773659663	4
0	7684	2647.322122716412	3
0	7690	2648.118686330977	4
0	7695	2652.579489457963	3
0	7702	2653.02715878245	4
0	7704	2655.284592782728	5
0	7707	2660.156376836972	4
0	7713	2660.579129434559	3
0	7719	2662.584647496647	2
0	7729	2666.495438334634	1
0	7741	2677.289378643812	0
0	7778	2686.333480196907	1
0	7785	2690.804138746532	0
0	7831	2705.703450943185	1
0	7833	2706.174051200351	0
0	7861	2720.771250696261	1
0	7863	2721.491477329246	2
0	7868	2722.923936867552	3
0	7869	2723.628128558735	2
0	7875	2724.2028803524	1
0	7880	2724.999273491257	0
0	7892	2727.709073138136	1
0	7894	2728.474781872316	2
0	7899	2730.055361724464	3
0	7900	2730.905598330332	2
0	7905	2732.21563247714	1
0	7913	2732.783238899927	2
0	7915	2732.98130370382	3
0	7919	2735.671679649347	2
0	7924	2735.929697694954	1
0	7928	2737.574467000808	2
0	7932	2739.427847943204	3
0	7934	2744.477791712029	4
0	7935	2745.548448138692	3
0	7942	2747.59045216402	4
0	7947	2751.551649836834	5
0	7948	2752.429457173528	4
0	7953	2752.91889683477	3
0	7959	2753.759225041587	2
0	7964	2754.08143472062	1
0	7972	2756.42100809404	2
0	7976	2758.815666777259	3
0	7983	2761.720385586121	4
0	7984	2763.110993988765	3
0	7989	2763.781969437299	2
0	7995	2765.074789334709	1
0	8003	2767.366927546423	2
0	8004	2767.987685901008	1
0	8009	2768.357204166663	0
0	8029	2772.27632027742	1
0	8035	2774.289420934331	2
0	8037	2775.662685189818	1
0	8042	2776.276362411164	0
0	8050	2778.285827416877	1
0	8051	2778.312600661206	0
0	8075	2789.836092757766	1
0	8076	2792.054564805438	0
0	8087	2794.640229339261	1
0	8099	2798.850508998667	2
0	8102	2806.052522262793	3
0	8108	2810.876214572127	4
0	8109	2813.089768890524	3
0	8116	2813.939999918987	4
0	8119	2815.145734725607	5
0	8120	2815.615277537883	4
0	8127	2816.917973521929	5
0	8128	2818.672005764029	4
0	8134	2820.879009166713	3
0	8140	2823.000235367127	2
0	8147	2826.994175955437	3
0	8149	2829.720919118553	4
0	8158	2831.975765545607	3
0	8166	2833.377276571674	2
0	8174	2835.975806641224	3
0	8175	2836.815322060262	2
0	8183	2837.613867930722	3
0	8187	2839.610670599154	2
0	8193	2839.980419939504	1
0	8199	2840.510122130366	2
0	8200	2840.932641093703	1
0	8209	2842.293716439333	0
0	8215	2842.41136671163	1
0	8219	2843.242749410573	0
0	8225	2843.494435573091	1
0	8229	2848.305704397193	0
0	8237	2855.017316672193	1
0	8239	2855.360481180528	2
0	8240	2856.174699124779	1
0	8246	2856.36066171414	2
0	8249	2858.683718673308	1
0	8255	2859.582085481792	2
0	8257	2861.757422972218	3
0	8259	2863.029774314455	4
0	8260	2863.500491455178	3
0	8264	2863.664257168145	4
0	8266	2864.270256108276	5
0	8273	2868.160169566129	4
0	8277	2868.81430643022	5
0	8280	2869.1747814906	4
0	8287	2873.364294867129	3
0	8294	2874.670563382568	2
0	8303	2875.939501178111	3
0	8304	2876.022893013299	2
0	8309	2876.696899214798	1
0	8313	2878.526951659228	2
0	8316	2881.494053208767	1
0	8323	2883.872552287716	0
0	8333	2888.673019854458	1
0	8334	2889.181448628587	0
0	8342	2890.807577501288	1
0	8344	2890.970587156665	2
0	8345	2891.009426688642	1
0	8356	2899.264157658589	0
0	8371	2903.641898931303	1
0	8372	2903.714875169578	0
0	8384	2905.268144186523	1
0	8386	2905.629261341737	2
0	8388	2905.833402798638	1
0	8393	2906.437321321875	0
0	8404	2908.925563825178	1
0	8412	2919.278112501366	0
0	8435	2924.109770372896	1
0	8436	2924.310991275406	0
0	8443	2925.741938321026	1
0	8445	2925.801474829303	2
0	8447	2926.562814066919	3
0	8448	2928.184383919628	2
0	8455	2930.140192763947	3
0	8456	2930.912244505978	2
0	8463	2933.040537855114	3
0	8464	2934.844347787972	2
0	8469	2935.2918820477	1
0	8476	2937.001975984143	2
0	8478	2937.247990130464	1
0	8485	2938.378599264444	0
0	8504	2944.021755944879	1
0	8506	2944.032999735544	2
0	8507	2944.081919474071	1
0	8515	2946.359927691665	2
0	8517	2948.663272888375	1
0	8524	2953.041876070477	0
0	8538	2955.022251498777	1
0	8540	2955.567054104861	2
0	8545	2959.785093859839	3
0	8548	2960.637640952543	2
0	8553	2961.595010950602	1
0	8558	2963.08157667629	0
0	8564	2964.215409230189	1
0	8566	2964.499364089355	2
0	8569	2964.780821678807	1
0	8576	2966.498969307123	2
0	8578	2966.675526324159	3
0	8580	2966.707187158214	4
0	8584	2967.112717659351	5
0	8586	2967.651863424179	6
0	8588	2967.791315775385	5
0	8595	2970.985141523614	4
0	8604	2974.138550444166	3
0	8610	2974.771874311337	4
0	8612	2981.506949581341	3
0	8619	2983.446739725746	4
0	8620	2984.922316786267	3
0	8626	2985.30725308173	4
0	8630	2988.147207381964	3
0	8636	2988.430185225624	4
0	8638	2988.436250860293	5
0	8642	2993.104963132714	4
0	8648	2993.208533628371	5
0	8653	2995.6391997914	6
0	8654	2996.28516265785	5
0	8661	2999.28357923813	4
0	8667	3001.471825854005	3
0	8676	3003.67116329261	4
0	8678	3004.736411787233	5
0	8679	3007.21239405829	4
0	8684	3009.353582701217	3
0	8690	3012.273665561871	2
0	8695	3012.637457388981	1
0	8699	3013.783003115111	2
0	8705	3015.283466465283	3
0	8707	3016.838108559045	4
0	8709	3016.85722124103	5
0	8710	3017.064362971115	4
0	8716	3017.309317310306	5
0	8718	3017.318722302786	6
0	8719	3017.577885694936	5
0	8724	3018.106612347725	4
0	8729	3019.575254025774	3
0	8734	3022.179113288737	2
0	8738	3023.361733523811	3
0	8743	3026.699107370312	4
0	8746	3028.258580127096	3
0	8753	3029.892287211826	4
0	8758	3035.592718121688	5
0	8759	3036.516156307415	4
0	8767	3038.832028326917	3
0	8772	3040.27376207167	2
0	8777	3040.693719537446	1
0	8784	3047.627520587273	0
0	8810	3058.880959627898	1
0	8813	3059.725423220476	0
0	8830	3062.766678231931	1
0	8832	3063.364050253939	2
0	8834	3064.142686227717	1
0	8840	3065.120673235647	0
0	8854	3066.745853284962	1
0	8859	3068.276708371529	0
0	8868	3072.880858601544	1
0	8873	3074.354812941326	0
0	8888	3080.264987179939	1
0	8893	3081.786792233121	2
0	8894	3082.910585487339	1
0	8901	3083.963868315524	2
0	8902	3085.507700579889	1
0	8907	3086.220486215652	0
0	8914	3087.114620314647	1
0	8917	3087.650886277223	2
0	8920	3099.61460333735	3
0	8921	3101.4385879246	2
0	8927	3102.318099039841	1
0	8934	3103.701989086268	2
0	8936	3104.948485264949	1
0	8942	3105.287051166654	2
0	8946	3108.616610733611	1
0	8953	3109.334286858271	2
0	8954	3109.412778273081	1
0	8959	3110.85495605133	0
0	8969	3114.967201218528	1
0	8971	3115.208851217153	2
0	8972	3116.03458210617	1
0	8978	3119.023928921315	0
0	8993	3122.405471544025	1
0	8994	3125.651917909881	0
0	9010	3127.068303648838	1
0	9011	3128.377682787513	0
0	9017	3128.797649764929	1
0	9018	3129.19697144563	0
0	9026	3132.726095596217	1
0	9037	3141.512169802766	2
0	9038	3142.072573374609	1
0	9044	3142.404271593208	2
0	9047	3145.002996693032	1
0	9053	3148.267324800653	0
0	9070	3151.435332289157	1
0	9071	3154.087979092531	0
0	9077	3154.23025924126	1
0	9079	3154.33745226856	2
0	9083	3156.008368324333	3
0	9088	3159.177385664964	4
0	9089	3159.321522063097	3
0	9097	3163.289324116227	2
0	9103	3163.458821768082	3
0	9105	3167.847847484258	2
0	9112	3169.195792221894	3
0	9113	3170.560873377544	2
0	9119	3171.021052842285	3
0	9122	3171.944941120221	4
0	9125	3172.97609594763	5
0	9126	3176.020704269731	4
0	9133	3176.503862351351	5
0	9134	3176.664091278215	4
0	9140	3177.645776511593	3
0	9148	3180.305225073148	2
0	9154	3181.848932972806	1
0	9160	3184.586118711147	0
0	9173	3186.422614296935	1
0	9175	3187.207208419699	0
0	9181	3187.281293218647	1
0	9183	3187.940293625085	0
0	9204	3191.175917656093	1
0	9206	3191.445611641418	2
0	9210	3193.8937673346	1
0	9215	3194.173034104738	0
0	9227	3199.240224087953	1
0	9228	3199.298642051288	0
0	9232	3199.60153996232	1
0	9237	3203.108428442279	0
0	9243	3203.546530455367	1
0	9248	3206.590417376975	0
0	9262	3208.188320308725	1
0	9264	3208.558296576999	2
0	9267	3211.778418450496	1
0	9273	3212.024396485456	0
0	9279	3212.068771813083	1
0	9281	3220.775875984895	0
0	9301	3222.804148290001	1
0	9307	3226.592905353865	2
0	9309	3227.267746808932	3
0	9312	3229.36361998746	2
0	9322	3230.930042803716	3
0	9324	3231.599701172671	4
0	9325	3233.83080426961	3
0	9330	3234.50076232098	2
0	9338	3237.281063247308	3
0	9339	3237.526041351345	2
0	9346	3239.210326223877	3
0	9347	3239.342426824376	2
0	9352	3240.349974075425	1
0	9360	3243.630137424213	0
0	9371	3244.234288824601	1
0	9373	3245.258259996804	2
0	9374	3245.631571716851	1
0	9382	3249.042250373981	2
0	9385	3250.885591230258	1
0	9390	3250.925972956569	0
0	9400	3256.879225407923	1
0	9402	3258.644053988258	2
0	9404	3260.45204984156	3
0	9405	3261.704794141187	2
0	9411	3262.192770389124	3
0	9415	3264.955016284458	2
0	9422	3265.336299314263	1
0	9430	3267.648432721	0
0	9434	3267.882392712755	1
0	9438	3270.562372895778	2
0	9440	3274.678951836598	1
0	9446	3275.19242649267	2
0	9447	3275.528095271384	1
0	9455	3278.542563528052	2
0	9456	3279.10391974648	1
0	9461	3279.503918555018	0
0	9468	3281.535400878909	1
0	9469	3282.287188826408	0
0	9499	3290.572107932645	1
0	9506	3294.708473040506	0
0	9520	3297.301747294662	1
0	9530	3305.65635603271	2
0	9531	3305.760544094049	1
0	9537	3306.86639298285	0
0	9563	3314.423394978849	1
0	9564	3316.244829223932	0
0	9593	3329.837617831462	1
0	9595	3331.499956326025	2
0	9598	3336.64280340611	1
0	9605	3337.112443055351	2
0	9606	3339.677116745216	1
0	9612	3340.64991161339	0
0	9619	3342.863023235572	1
0	9623	3346.30544713191	2
0	9624	3347.249276121709	1
0	9630	3348.184176059594	0
0	9647	3352.905319904327	1
0	9648	3353.441838506139	0
0	9654	3354.047491834311	1
0	9656	3355.362530155069	2
0	9658	3356.395189960388	1
0	9664	3357.859199185771	0
0	9670	3358.219050114726	1
0	9671	3358.968879352077	0
0	9693	3361.659103392434	1
0	9695	3364.991702614848	2
0	9698	3366.16030890675	1
0	9704	3367.296426339716	2
0	9706	3367.302475305496	3
0	9707	3367.691140201059	2
0	9713	3369.120848298753	3
0	9718	3377.410338649578	2
0	9724	3381.367998765958	1
0	9731	3386.592627134358	2
0	9732	3387.092099193187	1
0	9737	3387.096467184234	0
0	9743	3388.201477526397	1
0	9745	3390.079415097978	0
0	9759	3393.606245164127	1
0	9761	3396.367078959593	0
0	9768	3399.146217247725	1
0	9769	3399.936042554773	0
0	9799	3412.188576187961	1
0	9803	3416.881128103652	2
0	9809	3421.236913660599	1
0	9815	3423.516279078637	0
0	9829	3434.679759907172	1
0	9831	3441.750942739943	2
0	9835	3447.954889500352	3
0	9836	3448.607176564618	2
0	9843	3450.240349857281	3
0	9844	3450.61055802741	2
0	9852	3454.48446883489	3
0	9854	3455.126710485288	2
0	9860	3455.856598356423	1
0	9867	3457.608398998911	2
0	9868	3461.706546654489	1
0	9873	3463.693983635034	0
0	9885	3465.486686895597	1
0	9889	3467.155275853778	0
0	9902	3471.815947561482	1
0	9906	3473.235085814127	2
0	9907	3473.383026572663	1
0	9916	3475.509769379897	2
0	9919	3476.131891884319	3
0	9920	3476.599815997486	2
0	9929	3487.608980171741	3
0	9930	3488.45812831271	2
0	9936	3488.722427772455	1
0	9943	3490.394717645869	0
0	9949	3491.130632844898	1
0	9951	3491.68889699453	2
0	9952	3492.060736742703	1
0	9956	3492.337721175295	2
0	9958	3493.921260795418	3
0	9963	3497.124340481237	2
0	9971	3500.589726767902	1
0	9977	3501.772834437502	2
0	9982	3502.424414980936	3
0	9983	3503.769895987648	2
0	9988	3504.075794555932	1
0	9996	3508.598857836986	2
0	9997	3509.064017831035	1
0	10002	3509.299142702326	0
0	10013	3510.496163605956	1
0	10017	3511.108029259771	0
0	10028	3511.845802521685	1
0	10030	3512.737583302273	2
0	10034	3516.684707534392	1
0	10039	3516.823797705779	0
0	10046	3517.825410820985	1
0	10049	3519.70759973042	0
0	10072	3522.524524438271	1
0	10076	3523.203905433138	0
0	10093	3526.843031543921	1
0	10094	3529.815323964039	0
0	10115	3534.500669428852	1
0	10116	3534.610798353506	0
0	10134	3537.562858058182	1
0	10139	3538.15419864756	2
0	10141	3538.193708834401	3
0	10142	3546.865928092987	2
0	10148	3547.20923253367	3
0	10150	3547.824643979218	2
0	10157	3551.051363988138	1
0	10163	3551.986612390326	2
0	10164	3552.846672766697	1
0	10169	3553.53136174551	0
0	10173	3553.948998257598	1
0	10177	3555.121034888988	0
0	10185	3559.985765966146	1
0	10186	3560.126340675307	0
0	10213	3569.669516343054	1
0	10215	3569.727349232039	2
0	10217	3570.097917004692	3
0	10222	3573.728103919977	2
0	10228	3577.009099839888	1
0	10237	3581.39937107352	2
0	10240	3581.904176152884	1
0	10246	3582.044062408764	2
0	10247	3582.201644370972	1
0	10253	3582.322009593936	2
0	10254	3583.371683153587	1
0	10260	3588.274066954757	2
0	10262	3588.734989802307	3
0	10263	3589.369270296515	2
0	10272	3592.245058725724	3
0	10273	3592.764494733944	2
0	10288	3599.909967377721	1
0	10294	3600.252607469868	2
0	10296	3600.350092675439	1
0	10302	3600.773278307317	2
0	10303	3600.841879049876	1
0	10312	3603.606039037101	0
0	10320	3606.260776991593	1
0	10321	3607.43528561286	0
0	10328	3608.92224383622	1
0	10329	3609.896549115303	0
0	10341	3611.167796106397	1
0	10343	3611.172196569286	2
0	10345	3612.064871514413	3
0	10346	3612.087691867976	2
0	10352	3613.184656013697	1
0	10363	3615.739408129089	2
0	10364	3615.773303475966	1
0	10371	3618.890887462622	2
0	10375	3620.897289914409	3
0	10377	3621.167760196398	4
0	10381	3628.226220647014	3
0	10386	3628.384315043681	2
0	10392	3628.864410237151	1
0	10397	3630.583503083634	0
0	10401	3630.871138135213	1
0	10404	3633.425769818074	0
0	10408	3633.661385094224	1
0	10410	3634.548176156067	2
0	10414	3636.604017784562	3
0	10424	3641.47094099875	4
0	10425	3643.195843849063	3
0	10430	3643.339299791656	2
0	10435	3643.469013909254	1
0	10440	3646.073274596176	0
0	10448	3647.055063747344	1
0	10451	3648.675575750017	2
0	10455	3650.361955050615	3
0	10456	3650.385115262382	2
0	10461	3650.446239110761	1
0	10465	3650.773964288151	2
0	10470	3651.908471794671	1
0	10475	3655.696308496433	0
0	10482	3664.002941041221	1
0	10483	3664.708224503876	0
0	10491	3669.725907223007	1
0	10492	3669.860649208409	0
0	10520	3677.682745786142	1
0	10521	3678.532038476832	0
0	10529	3679.146697540332	1
0	10530	3680.459465299213	0
0	10536	3680.6182407121	1
0	10537	3682.188061034823	0
0	10546	3683.46781452528	1
0	10548	3684.114370257625	2
0	10550	3684.205234725273	3
0	10554	3685.46802337377	2
0	10560	3685.68346814348	3
0	10561	3686.932517912348	2
0	10567	3688.545710599047	3
0	10568	3689.14662594315	2
0	10572	3689.491673226977	3
0	10574	3691.575533409145	4
0	10576	3691.945689560198	5
0	10581	3694.826247228156	4
0	10586	3694.853502774354	3
0	10591	3694.88233106	2
0	10597	3696.07089474522	3
0	10603	3697.182676076733	4
0	10604	3697.797070712052	3
0	10608	3697.866498893475	4
0	10611	3698.508575238756	3
0	10615	3700.225877807526	4
0	10619	3703.889965776645	3
0	10624	3704.246999324878	2
0	10628	3706.137456703348	3
0	10634	3710.432374156516	4
0	10635	3710.827466413757	3
0	10639	3710.83446652089	4
0	10641	3711.807658623132	5
0	10645	3713.993003954904	4
0	10651	3714.403045177294	3
0	10657	3714.778262687265	4
0	10662	3716.168536717924	3
0	10668	3717.056322993698	2
0	10678	3721.674669576086	3
0	10683	3723.351790033094	2
0	10689	3725.842371017589	1
0	10696	3728.786776874597	2
0	10697	3732.817214180901	1
0	10706	3733.492286391081	0
0	10714	3735.476244510834	1
0	10717	3740.677599643604	0
0	10729	3745.756490219533	1
0	10731	3745.999504748379	2
0	10736	3750.57369187782	1
0	10742	3751.212618782117	0
0	10763	3754.26573902239	1
0	10764	3754.645322123876	0
0	10783	3758.45536553442	1
0	10785	3758.529449618577	2
0	10787	3758.821820349394	3
0	10791	3761.59230961881	4
0	10795	3763.431363536673	5
0	10797	3765.395717570843	6
0	10798	3766.558756542866	5
0	10806	3768.965206420272	6
0	10808	3770.582486911527	5
0	10814	3772.094110323607	4
0	10821	3775.157397357012	3
0	10828	3782.083601847595	4
0	10829	3782.086939867902	3
0	10835	3783.200170058937	2
0	10842	3783.460274067617	1
0	10847	3783.71413401377	0
0	10879	3790.111780511558	1
0	10880	3790.614473742117	0
0	10893	3793.326296268427	1
0	10895	3794.000223856722	2
0	10896	3794.61355181693	1
0	10904	3803.062400710545	0
0	10921	3805.266300025576	1
0	10925	3807.487314384372	0
0	10951	3820.487033624249	1
0	10953	3821.164876188751	2
0	10955	3822.38672925066	3
0	10956	3828.60809643392	2
0	10962	3829.022131791074	3
0	10964	3830.140171495127	4
0	10966	3832.761930093657	3
0	10972	3832.864607416873	4
0	10973	3833.154851358992	3
0	10979	3834.12392749823	2
0	10988	3836.613193906732	3
0	10991	3839.643807856316	4
0	10992	3840.147694450846	3
0	10998	3841.170233701272	4
0	10999	3842.069731637039	3
0	11009	3846.641297097163	2
0	11018	3848.830134134299	1
0	11025	3851.727288810935	0
0	11052	3864.807763464098	1
0	11061	3872.584923567286	0
0	11068	3875.790511866114	1
0	11071	3878.154032325764	2
0	11073	3879.951014913401	3
0	11075	3882.273016686515	4
0	11076	3884.349628506615	3
0	11083	3888.438450358302	4
0	11084	3888.506472808386	3
0	11093	3890.199686706015	4
0	11095	3892.409222491621	5
0	11096	3894.662024720224	4
0	11102	3895.04557195131	5
0	11105	3899.9541203044	6
0	11107	3903.088672767761	7
0	11108	3904.283282451526	6
0	11115	3904.681698119764	5
0	11120	3906.343162228752	4
0	11124	3906.400094472952	5
0	11127	3907.010327559003	4
0	11132	3907.551929402944	3
0	11136	3908.118377921103	4
0	11138	3908.568576575379	5
0	11141	3908.919658327127	4
0	11148	3910.556688301257	5
0	11149	3911.385425346274	4
0	11155	3911.671326430813	5
0	11158	3914.624339483278	6
0	11160	3916.274939621044	5
0	11167	3917.316666931718	6
0	11171	3917.438117317096	7
0	11172	3918.61093485405	6
0	11178	3920.33665590743	5
0	11183	3921.076941638026	4
0	11192	3924.341153514214	3
0	11200	3930.624699042387	4
0	11202	3932.124816948853	5
0	11206	3934.368928615827	6
0	11207	3936.233767590621	5
0	11216	3938.449495549487	6
0	11217	3938.63729740697	5
0	11224	3939.046180759426	4
0	11229	3939.501540585126	3
0	11236	3940.566599118495	2
0	11240	3943.610086289256	3
0	11247	3947.759663126964	4
0	11249	3948.164524098653	3
0	11257	3950.498002624472	4
0	11259	3951.46393455444	3
0	11268	3956.129245804746	4
0	11269	3956.904095065236	3
0	11274	3957.610424100945	2
0	11279	3959.099093633573	1
0	11284	3961.67040470287	0
0	11290	3962.842649855035	1
0	11292	3963.573909496079	2
0	11296	3966.15614866365	1
0	11302	3966.713166185462	2
0	11303	3968.310133129579	1
0	11308	3969.271306895381	0
0	11334	3976.185637095306	1
0	11336	3976.846020380679	2
0	11337	3976.910242200125	1
0	11343	3977.04802059637	2
0	11344	3977.067641320793	1
0	11351	3977.39512969696	2
0	11353	3977.523042756135	3
0	11354	3977.731970655121	2
0	11360	3978.013378192845	3
0	11362	3979.897005546429	4
0	11364	3980.073111495998	3
0	11372	3981.154553097574	4
0	11373	3982.109552043052	3
0	11378	3982.483490286429	2
0	11385	3982.911720172895	3
0	11388	3983.51851468348	2
0	11393	3984.330316992094	1
0	11398	3985.715627643048	0
0	11402	3986.013153440786	1
0	11405	3986.898897504351	0
0	11409	3987.484901212522	1
0	11411	3987.584504313715	2
0	11413	3987.808884883467	3
0	11416	3988.633084504189	2
0	11421	3989.357011976375	1
0	11429	3991.59706587838	2
0	11430	3991.73684794516	1
0	11443	3995.715594267145	0
0	11449	3996.300847586873	1
0	11451	3997.529091424496	2
0	11454	4000.819360492205	3
0	11455	4001.070955757228	2
0	11461	4001.993199721378	1
0	11468	4002.509660989178	2
0	11469	4002.702559589162	1
0	11477	4003.207633653809	2
0	11481	4005.876506910639	1
0	11487	4008.52263795546	2
0	11488	4010.432306484411	1
0	11495	4011.456433373341	2
0	11496	4011.612032435443	1
0	11504	4014.888862442094	2
0	11505	4016.238975884687	1
0	11511	4016.299832912068	2
0	11514	4017.874639979028	1
0	11519	4018.869732829311	0
0	11531	4023.753372255062	1
0	11532	4024.932494528737	0
0	11559	4029.882228591696	1
0	11565	4031.812807352825	0
0	11603	4045.706333120344	1
0	11607	4049.657002113711	0
0	11614	4050.775832972737	1
0	11616	4051.519826681297	2
0	11618	4051.711614453561	3
0	11619	4051.879962556926	2
0	11624	4051.886344128689	1
0	11630	4052.515174926446	0
0	11646	4056.612371896052	1
0	11654	4062.608188864502	2
0	11657	4065.878733303055	1
0	11663	4068.674778338049	0
0	11673	4071.289552198534	1
0	11676	4073.519294300183	0
0	11682	4073.699085668191	1
0	11684	4073.82191197642	0
0	11708	4079.109241334329	1
0	11709	4079.671280379199	0
0	11741	4093.144788727512	1
0	11742	4093.426494122744	0
0	11751	4099.051145072619	1
0	11753	4099.190464830595	2
0	11758	4106.798872977706	3
0	11762	4108.674559547561	4
0	11764	4108.896589485757	5
0	11767	4111.172168055637	4
0	11774	4114.258351367108	3
0	11779	4114.693773186186	2
0	11785	4116.368887249028	1
0	11793	4120.79068554393	2
0	11795	4121.043243495796	3
0	11800	4121.513140102396	2
0	11807	4122.16505947202	3
0	11808	4122.469866866678	2
0	11815	4124.775672593759	1
0	11826	4126.720508597479	0
0	11839	4130.317820724012	1
0	11840	4131.595927082407	0
0	11855	4142.078977678077	1
0	11859	4145.782524618282	2
0	11860	4145.914145335813	1
0	11865	4148.989758662777	0
0	11873	4155.996912370993	1
0	11874	4156.318910958053	0
0	11889	4163.238245721856	1
0	11891	4167.392553769041	2
0	11898	4174.054228276548	1
0	11903	4175.326040266851	0
0	11911	4176.2997915012	1
0	11916	4185.376171697661	0
0	11935	4192.918836110127	1
0	11937	4193.093857547746	2
0	11938	4193.752278128181	1
0	11945	4194.511682387192	2
0	11947	4194.686220879563	3
0	11953	4197.180232238923	4
0	11955	4198.276425143229	5
0	11959	4199.722844818916	6
0	11960	4202.96376938218	5
0	11967	4205.778688357778	4
0	11972	4206.062736982766	3
0	11978	4206.432945692263	4
0	11979	4206.52828893362	3
0	11983	4206.588333362372	4
0	11986	4208.804695845147	3
0	11992	4209.613081646433	4
0	11994	4210.845435458663	5
0	11996	4211.437054073546	6
0	11997	4211.661171301296	5
0	12001	4211.914783286311	6
0	12003	4213.007684781211	7
0	12005	4216.268105304472	8
0	12007	4217.845805530168	9
0	12011	4218.154847475027	10
0	12014	4218.785058413684	11
0	12018	4221.612538518964	10
0	12027	4225.832055090754	9
0	12033	4226.333671184195	8
0	12039	4227.694647900439	9
0	12042	4229.261828893654	8
0	12047	4229.454032801277	7
0	12053	4230.350024241432	6
0	12062	4231.537239428938	7
0	12063	4231.954844148794	6
0	12069	4232.323635542295	5
0	12074	4232.75787602456	4
0	12078	4233.91052944961	5
0	12080	4235.940292572215	6
0	12085	4237.236011159428	5
0	12091	4241.702914385069	4
0	12098	4242.724902189384	3
0	12103	4247.270987080856	2
0	12107	4252.409685142123	3
0	12109	4254.542980249522	4
0	12111	4256.931759644476	5
0	12114	4257.990400246585	4
0	12123	4263.815721140644	3
0	12127	4263.956010466921	4
0	12130	4265.282210968262	3
0	12137	4267.013341247151	4
0	12139	4269.319254353292	3
0	12145	4269.415271134667	4
0	12146	4269.747831083931	3
0	12155	4271.403608847685	2
0	12162	4272.646199844124	3
0	12164	4273.364049940465	4
0	12165	4276.587149630766	3
0	12171	4276.707021021858	4
0	12172	4277.625549729623	3
0	12178	4278.286163499592	4
0	12180	4278.709833992747	5
0	12184	4281.057502735247	4
0	12189	4281.587777863991	3
0	12196	4285.06572271154	2
0	12200	4286.718311905113	3
0	12204	4293.668527578046	4
0	12210	4297.432750456361	5
0	12216	4300.737959742506	6
0	12218	4301.706326353966	7
0	12219	4302.013715405056	6
0	12226	4304.936249613151	7
0	12227	4307.815139180568	6
0	12237	4309.902666304572	5
0	12243	4310.507368676567	6
0	12247	4315.800995503698	5
0	12253	4316.584301263362	4
0	12258	4317.838348124133	3
0	12263	4318.999232317018	2
0	12269	4320.418867854961	3
0	12270	4320.874026119714	2
0	12274	4322.075049474209	3
0	12276	4323.171270329483	4
0	12279	4324.106201800084	3
0	12283	4324.857948859984	4
0	12289	4325.685132678456	5
0	12292	4327.449640115389	4
0	12299	4328.699402534254	3
0	12305	4328.928856189442	4
0	12307	4329.234247484809	5
0	12309	4329.802626016811	4
0	12316	4330.324191538245	3
0	12322	4331.293266860552	4
0	12324	4331.401164821367	5
0	12325	4332.508123394579	4
0	12336	4337.371520505996	3
0	12343	4337.848881908158	2
0	12349	4337.961016194316	3
0	12353	4339.878648745358	4
0	12354	4341.442440373427	3
0	12362	4343.308331083696	4
0	12363	4344.03998244297	3
0	12371	4345.93907736219	4
0	12373	4346.352416289591	5
0	12374	4347.06018492541	4
0	12381	4349.351259606399	3
0	12386	4350.754884976562	2
0	12392	4352.311455935113	3
0	12395	4355.211420763539	2
0	12402	4355.5108798603	3
0	12404	4356.920629317924	4
0	12405	4359.719348224067	3
0	12410	4361.089378113239	2
0	12415	4361.440329661809	1
0	12420	4362.940060068496	0
0	12448	4375.362653207007	1
0	12449	4375.555954625927	0
0	12472	4379.304691237222	1
0	12474	4379.322469405202	2
0	12479	4386.336099014671	1
0	12484	4387.690792153457	0
0	12490	4387.889175623681	1
0	12496	4392.402847183468	0
0	12518	4398.640522022194	1
0	12520	4400.886000143736	2
0	12523	4401.160800564103	1
0	12530	4401.93883961098	2
0	12531	4402.818785857211	1
0	12538	4408.488024818742	2
0	12539	4408.897837848934	1
0	12545	4409.714143959689	0
0	12557	4411.351640565143	1
0	12558	4411.73945392628	0
0	12581	4420.224746258186	1
0	12583	4420.480095617431	2
0	12585	4420.932543647398	3
0	12586	4421.045667364712	2
0	12592	4421.459476758421	3
0	12594	4424.842473263947	2
0	12599	4425.69801195663	1
0	12604	4426.238942408041	0
0	12608	4426.914198719913	1
0	12613	4428.753467526397	0
0	12622	4432.162000025881	1
0	12624	4432.573163868163	2
0	12630	4434.943472760909	3
0	12632	4435.702387148029	4
0	12634	4435.945014813813	3
0	12640	4436.1722574816	4
0	12642	4436.879743497891	3
0	12649	4439.312023234973	4
0	12650	4440.134868155835	3
0	12655	4441.734449958946	2
0	12661	4443.472467315382	3
0	12663	4447.848895163185	4
0	12667	4448.928647750814	5
0	12670	4452.025276342803	4
0	12676	4453.386466127906	3
0	12684	4455.524742929365	4
0	12686	4457.723960773746	5
0	12690	4461.146974709246	6
0	12691	4462.164364301916	5
0	12697	4463.515266918977	4
0	12705	4467.660470114766	3
0	12711	4468.840300508749	4
0	12713	4472.225140491811	5
0	12714	4473.071083606159	4
0	12719	4474.649403281844	3
0	12724	4474.831933183562	2
0	12732	4479.11518244589	3
0	12733	4479.215301749874	2
0	12741	4480.951386855849	1
0	12746	4482.502758297498	0
0	12766	4484.996249875013	1
0	12769	4488.675339669638	0
0	12782	4493.498387340888	1
0	12784	4496.304815350249	2
0	12786	4496.830705315999	3
0	12790	4499.295463267946	2
0	12795	4499.466033597081	1
0	12801	4502.407630449558	0
0	12810	4504.118437408252	1
0	12812	4504.777705647858	2
0	12815	4505.35359613708	1
0	12821	4505.876729953893	2
0	12823	4507.152072081267	3
0	12825	4509.077149451209	2
0	12830	4509.350392386175	1
0	12834	4509.507584198178	2
0	12839	4512.558534779014	1
0	12847	4516.6392175721	0
0	12857	4518.451568519823	1
0	12859	4519.074419806617	2
0	12861	4519.881528779572	3
0	12865	4522.825217299167	4
0	12867	4522.952224434451	5
0	12868	4523.501210459156	4
0	12874	4524.224331428409	5
0	12875	4524.698927351424	4
0	12881	4525.070091062778	3
0	12888	4525.936724414331	2
0	12897	4530.620383341116	1
0	12903	4533.366679267031	0
0	12911	4538.106645542864	1
0	12913	4538.630194304831	2
0	12914	4538.851715036534	1
0	12919	4539.125750927414	0
0	12923	4540.620945925056	1
0	12927	4542.245948382059	2
0	12929	4544.706796611339	1
0	12935	4548.548330270425	0
0	12948	4551.502965349406	1
0	12950	4552.137571913144	2
0	12951	4553.405454573293	1
0	12956	4553.406486383708	0
0	12983	4562.348298050484	1
0	12988	4564.583489078529	2
0	12991	4566.968629232008	1
0	12997	4568.52497187209	0
0	13004	4568.850347444476	1
0	13006	4569.122210122987	2
0	13007	4570.17768813737	1
0	13013	4570.797065172987	0
0	13028	4574.691301055578	1
0	13029	4577.894669732605	0
0	13036	4579.093412376843	1
0	13037	4579.802108997291	0
0	13049	4581.700870459011	1
0	13051	4581.917188222942	2
0	13053	4583.536324409517	1
0	13059	4583.774788733869	2
0	13060	4584.564772426268	1
0	13069	4587.587372835509	2
0	13070	4587.630492280353	1
0	13075	4588.441552089142	0
0	13083	4592.483081382563	1
0	13084	4592.543289310594	0
0	13088	4595.066318755014	1
0	13094	4599.240593575843	0
0	13118	4603.027346747356	1
0	13120	4605.018891098724	0
0	13131	4607.442309595787	1
0	13135	4608.238270100201	2
0	13139	4608.849000428717	1
0	13145	4609.282816934655	2
0	13147	4609.511030839019	1
0	13155	4610.472603955329	0
0	13184	4616.663780574449	1
0	13186	4617.942651169208	2
0	13188	4619.099656588438	3
0	13195	4622.995493508369	2
0	13200	4623.558601983779	1
0	13206	4623.68520096266	2
0	13213	4625.918027578745	3
0	13217	4626.230067737379	2
0	13222	4627.089368390225	1
0	13228	4627.724702576875	2
0	13229	4629.428550818009	1
0	13235	4629.925599215495	2
0	13237	4630.048617646906	3
0	13238	4630.645368029372	2
0	13242	4630.947123029147	3
0	13245	4633.941792161636	2
0	13252	4634.828148189684	3
0	13254	4635.294513231604	4
0	13257	4637.432800371843	5
0	13258	4637.923715038412	4
0	13263	4638.606349372962	3
0	13271	4639.74012523672	4
0	13272	4640.141250897482	3
0	13278	4642.438748923566	2
0	13283	4642.872704060069	1
0	13288	4644.199915123861	0
0	13296	4649.004800614207	1
0	13299	4650.269715820773	0
0	13306	4652.266453963235	1
0	13309	4653.625047049217	0
0	13323	4657.463130200708	1
0	13324	4659.643099086719	0
0	13360	4670.234748479457	1
0	13361	4670.318266918571	0
0	13368	4671.379255784998	1
0	13369	4673.322663072762	0
0	13426	4699.072259478504	1
0	13427	4699.356705613295	0
0	13433	4700.402192351192	1
0	13434	4701.272507836419	0
0	13440	4702.668402150115	1
0	13442	4703.578247152037	2
0	13443	4704.159022253837	1
0	13452	4709.667441730132	0
0	13458	4710.313613817524	1
0	13463	4714.235781956102	2
0	13465	4714.323006112349	3
0	13466	4714.423667028316	2
0	13472	4715.068432471977	3
0	13474	4715.225920534543	4
0	13478	4717.796900981988	3
0	13484	4718.244747296481	4
0	13487	4719.747770263952	5
0	13488	4721.532039477655	4
0	13495	4722.207228942768	3
0	13500	4722.906476903285	2
0	13508	4725.980178659763	3
0	13509	4726.895879334999	2
0	13514	4730.013443509215	1
0	13519	4731.317469173901	0
0	13532	4734.671234933752	1
0	13535	4738.971671970378	0
0	13541	4743.333148960817	1
0	13545	4744.97524883469	0
0	13551	4745.257871957093	1
0	13559	4753.753888100172	0
0	13568	4756.043524479364	1
0	13573	4759.289411495775	0
0	13584	4762.404378896793	1
0	13585	4764.95781617995	0
0	13600	4769.358737958034	1
0	13601	4770.853599555295	0
0	13612	4774.124800799505	1
0	13614	4775.613060659328	2
0	13619	4778.244112430255	1
0	13627	4778.773532955761	2
0	13628	4779.085147933206	1
0	13634	4779.863149669326	2
0	13635	4780.754263777646	1
0	13640	4782.088754855571	0
0	13668	4790.536707663479	1
0	13669	4790.830591415554	0
0	13689	4797.660516975446	1
0	13695	4799.160638529859	2
0	13696	4802.436672193714	1
0	13702	4803.500802669151	2
0	13705	4804.875359552772	1
0	13711	4805.672362946617	2
0	13712	4806.003566049467	1
0	13718	4806.686264836366	0
0	13744	4812.795847349051	1
0	13745	4813.167664152835	0
0	13754	4814.170504144598	1
0	13758	4815.185727151891	2
0	13760	4816.238614767705	1
0	13770	4816.748281883868	0
0	13792	4821.244192983301	1
0	13793	4821.665641170577	0
0	13809	4825.776143929029	1
0	13811	4828.188842586356	2
0	13813	4828.297838015007	3
0	13817	4828.378666725787	4
0	13820	4832.414881398448	3
0	13826	4834.323267033507	2
0	13831	4835.329813952269	1
0	13836	4838.404069401864	0
0	13846	4843.194160003097	1
0	13848	4844.212399771415	2
0	13854	4850.339711636006	3
0	13855	4854.512048525263	2
0	13861	4855.345989439432	3
0	13862	4855.401998978495	2
0	13869	4856.10387647046	3
0	13871	4858.22603885004	2
0	13876	4858.860702354457	1
0	13881	4858.914600517143	0
0	13888	4861.535135081932	1
0	13891	4863.31370961961	0
0	13915	4869.08658763019	1
0	13916	4870.387086999816	0
0	13925	4870.517576742657	1
0	13928	4872.69436963968	0
0	13942	4878.081402905864	1
0	13946	4880.030629899801	0
0	13955	4881.630898385786	1
0	13957	4881.737447330164	2
0	13959	4881.792740900567	3
0	13961	4885.099468623531	4
0	13963	4885.753344753202	5
0	13966	4885.923020192682	4
0	13970	4885.959053216473	5
0	13974	4888.257014972742	6
0	13976	4888.490104927217	7
0	13977	4888.511676124478	6
0	13985	4889.999527403836	7
0	13988	4890.719007672762	8
0	13989	4890.850024658159	7
0	13994	4890.866697234562	6
0	14001	4894.652905117574	5
0	14006	4894.99448327488	4
0	14010	4896.452741456157	5
0	14018	4902.723597669938	6
0	14020	4904.861455714718	7
0	14022	4906.999779203906	8
0	14026	4911.105718462527	9
0	14027	4911.383481110428	8
0	14033	4911.697171649188	9
0	14042	4922.246369876263	10
0	14043	4922.478910626945	9
0	14051	4924.349572538009	8
0	14057	4926.018550626039	9
0	14058	4926.145584134607	8
0	14064	4926.626401033438	9
0	14068	4931.324084995005	10
0	14070	4934.812867459172	11
0	14072	4935.530482246484	12
0	14076	4936.054456486528	13
0	14077	4936.512319868049	12
0	14083	4938.258075565388	11
0	14088	4938.317935479963	10
0	14093	4939.080973639237	9
0	14098	4940.750995612601	8
0	14102	4942.799026859842	9
0	14107	4944.551769709551	10
0	14108	4947.981455300949	9
0	14113	4948.390395385061	8
0	14117	4949.484909069163	9
0	14119	4949.594233171502	10
0	14123	4953.067118633928	9
0	14130	4953.451773983306	8
0	14136	4955.398723089812	9
0	14138	4956.758598737453	8
0	14143	4957.102711350201	7
0	14149	4958.421375210033	8
0	14151	4959.744856877052	9
0	14155	4961.450849714594	8
0	14160	4962.585835955298	7
0	14166	4963.613673084038	8
0	14168	4965.894312453818	7
0	14173	4967.232771852199	6
0	14178	4967.424490524621	5
0	14185	4969.042712378343	6
0	14187	4970.16802880895	5
0	14192	4970.9005279897	4
0	14199	4973.799684374138	3
0	14204	4975.272170596655	2
0	14209	4977.990130901822	1
0	14217	4982.054082762388	2
0	14218	4983.003125984298	1
0	14224	4985.043409408255	2
0	14226	4985.890782669334	1
0	14234	4988.55086240899	2
0	14238	4990.024821976882	3
0	14239	4990.257964260544	2
0	14251	4994.963501434989	1
0	14256	4994.997387344017	0
0	14262	4995.056374804639	1
0	14263	4996.252561860271	0
0	14267	4997.94829113665	1
0	14270	4998.281151237089	0
0	14274	4998.855467902309	1
0	14278	5000.47057309212	0
0	14289	5001.870994456633	1
0	14291	5004.054804900398	0
0	14307	5008.38338975595	1
0	14309	5010.850728704077	0
0	14335	5015.728926908326	1
0	14337	5015.90425371008	2
0	14345	5018.499437440018	1
0	14354	5022.624906544308	2
0	14355	5024.222303134591	1
0	14363	5024.729778761263	2
0	14364	5024.813428335285	1
0	14370	5025.092257817253	0
0	14383	5028.714892521461	1
0	14384	5029.358010099508	0
0	14408	5032.975228252629	1
0	14410	5033.75681158847	2
0	14415	5034.892849640553	1
0	14420	5035.486664391261	0
0	14439	5039.639316118611	1
0	14441	5040.900720117614	0
0	14449	5043.137134020066	1
0	14452	5044.164919568059	0
0	14469	5051.308420164922	1
0	14470	5051.332474400065	0
0	14499	5062.139002207529	1
0	14504	5064.064676813177	2
0	14505	5064.104645036899	1
0	14511	5065.527821321479	0
0	14524	5068.859155259621	1
0	14525	5069.141714410159	0
0	14533	5070.242715904223	1
0	14535	5072.577856830479	2
0	14537	5073.618733073928	3
0	14539	5074.480003936852	4
0	14541	5074.481910361362	5
0	14542	5076.412686261465	4
0	14549	5076.689487979561	5
0	14550	5077.261785705762	4
0	14556	5078.702885672193	5
0	14558	5078.924491685416	6
0	14560	5078.970471681261	7
0	14561	5079.012048408695	6
0	14566	5079.224768327419	5
0	14570	5082.650151571125	6
0	14576	5090.798512732439	7
0	14578	5090.827965271687	8
0	14588	5096.609223718102	9
0	14589	5097.267412657585	8
0	14596	5102.816467287652	7
0	14600	5103.160644909142	8
0	14602	5103.187860665275	9
0	14606	5103.87675332212	10
0	14609	5106.920053584131	9
0	14613	5108.14000542163	10
0	14615	5108.255650617226	11
0	14617	5108.725297288429	12
0	14619	5109.790437784145	13
0	14621	5109.9903147002	14
0	14625	5110.938422312337	15
0	14627	5114.155503505563	16
0	14632	5114.613204233615	15
0	14639	5118.140520886352	16
0	14641	5118.228143723073	15
0	14647	5120.972958380732	14
0	14654	5123.107217627912	15
0	14655	5123.548269481087	14
0	14660	5125.652387407614	13
0	14668	5126.517649038673	12
0	14676	5128.929110942332	11
0	14685	5135.118676891831	10
0	14691	5136.135274118112	11
0	14692	5136.203463489946	10
0	14699	5137.161176261563	9
0	14705	5139.851766044618	8
0	14710	5143.438848102266	7
0	14715	5144.360217756949	6
0	14720	5145.147374794694	5
0	14724	5145.888503056364	6
0	14728	5149.801313946111	7
0	14729	5150.112747348895	6
0	14737	5152.128992333434	7
0	14739	5153.619667550724	8
0	14740	5153.842239857676	7
0	14745	5154.235554095545	6
0	14751	5156.238618968203	5
0	14758	5162.352705851617	4
0	14763	5163.192177366348	3
0	14767	5163.312908492664	4
0	14773	5166.480255694028	5
0	14774	5166.953964700882	4
0	14780	5172.413225231799	5
0	14784	5173.835889738267	4
0	14790	5176.41933222757	3
0	14795	5176.957059665369	2
0	14804	5180.665082716612	1
0	14809	5182.866377799261	0
0	14813	5183.260997136036	1
0	14817	5186.973758934549	0
0	14835	5187.623699640491	1
0	14837	5188.63859343468	0
0	14854	5197.39546778483	1
0	14856	5200.435537535981	2
0	14858	5201.420302814504	3
0	14860	5201.74991405189	4
0	14862	5202.377904881877	5
0	14866	5203.15660206745	6
0	14867	5203.307796771601	5
0	14873	5205.44765679703	4
0	14880	5206.536698393469	5
0	14884	5206.953717839043	6
0	14886	5206.971043314213	7
0	14887	5207.999540938465	6
0	14893	5210.142563553877	5
0	14901	5214.523316852269	4
0	14907	5215.201145514779	3
0	14914	5216.219564762716	2
0	14919	5216.825637625042	1
0	14926	5219.586034968672	0
0	14938	5221.311358630022	1
0	14941	5225.582797687142	0
0	14970	5236.401337950625	1
0	14972	5236.54727469094	2
0	14974	5238.536291027369	3
0	14975	5241.030832506353	2
0	14980	5241.363275891127	1
0	14987	5243.388897407282	0
0	15008	5249.025208799205	1
0	15013	5253.016261129188	0
0	15020	5253.876451480099	1
0	15021	5258.205361355526	0
0	15061	5268.896429315039	1
0	15065	5270.979504192445	2
0	15066	5273.589746388646	1
0	15075	5276.769551223695	0
0	15119	5290.072397760469	1
0	15124	5292.502553982644	2
0	15125	5297.313364580002	1
0	15130	5298.36570853684	0
0	15136	5298.630790541001	1
0	15137	5299.389243277983	0
0	15176	5311.521677116913	1
0	15179	5313.750304444673	0
0	15198	5323.337802728796	1
0	15199	5323.568344617392	0
0	15208	5325.986489116059	1
0	15212	5326.527252102289	2
0	15213	5326.958300856277	1
0	15221	5329.738832912483	0
0	15245	5335.105786163738	1
0	15246	5339.315530932292	0
0	15252	5340.04993971214	1
0	15254	5342.347579234805	0
0	15262	5342.806270836436	1
0	15263	5343.329715580968	0
0	15277	5346.989367541575	1
0	15283	5353.704967584752	0
0	15298	5354.726265352378	1
0	15299	5355.148607177609	0
0	15315	5358.443632814992	1
0	15323	5366.220652077469	0
0	15335	5369.262998031424	1
0	15336	5369.361409061674	0
0	15357	5374.501662689232	1
0	15360	5376.5309078237	0
0	15366	5380.543333629349	1
0	15376	5386.081914779757	2
0	15382	5389.26685682788	1
0	15388	5391.110293319629	2
0	15390	5392.532847205128	1
0	15397	5393.979145647379	2
0	15401	5397.177920579171	3
0	15404	5398.792278871988	2
0	15409	5399.344635227058	1
0	15416	5400.31456154101	0
0	15420	5400.824470032668	1
0	15422	5405.204447263439	2
0	15426	5408.644809736918	3
0	15430	5409.174516962505	4
0	15433	5412.50944817713	5
0	15435	5414.028362543554	4
0	15441	5414.101771370282	5
0	15447	5415.081271913683	6
0	15449	5417.009896729588	5
0	15455	5418.108260396861	6
0	15459	5422.671622976072	5
0	15466	5424.177320303112	6
0	15467	5424.840519748495	5
0	15476	5426.824425066256	6
0	15480	5430.661903270826	7
0	15481	5430.711653272169	6
0	15487	5433.487732044819	7
0	15492	5435.341446306843	8
0	15493	5436.096277293669	7
0	15500	5440.957195331408	8
0	15501	5441.056062713935	7
0	15508	5442.532298512299	6
0	15514	5443.881689424389	5
0	15522	5446.427217434469	4
0	15529	5450.597403254789	3
0	15535	5450.788907711055	4
0	15536	5451.217646211921	3
0	15542	5451.271304347606	4
0	15545	5453.978370796302	5
0	15546	5454.515731199933	4
0	15551	5455.194218540307	3
0	15555	5456.900747180821	4
0	15558	5457.782947175746	3
0	15565	5460.024730950536	2
0	15583	5464.402645540503	1
0	15590	5466.157227005246	2
0	15591	5466.649891345913	1
0	15597	5466.666683613425	2
0	15598	5467.190376053837	1
0	15608	5468.430353222696	2
0	15610	5469.908550402424	3
0	15613	5472.120758074949	2
0	15619	5474.110219648068	1
0	15626	5476.925565833445	0
0	15632	5476.94073509192	1
0	15633	5477.659292304672	0
0	15650	5478.476564777091	1
0	15652	5482.366328733744	0
0	15659	5484.011992188338	1
0	15660	5485.97071989394	0
0	15667	5487.093643808141	1
0	15669	5488.311661668714	2
0	15671	5488.482045454547	3
0	15672	5488.766199699586	2
0	15678	5489.750641818489	1
0	15684	5490.341870559004	2
0	15685	5491.73463108981	1
0	15691	5491.90241790746	2
0	15697	5498.625260206902	3
0	15698	5498.664960271607	2
0	15709	5504.678744712104	1
0	15715	5504.807340999701	2
0	15719	5508.955987571299	1
0	15726	5509.476390083176	2
0	15732	5514.54097650645	1
0	15741	5517.16927519671	2
0	15742	5517.391221155944	1
0	15748	5517.83789101563	0
0	15761	5521.382179024175	1
0	15764	5522.627346608529	0
0	15783	5533.703491263446	1
0	15784	5534.68282372607	0
0	15791	5535.949919060029	1
0	15793	5536.074740562416	2
0	15795	5537.599978688726	3
0	15796	5540.757697241352	2
0	15801	5540.857235235927	1
0	15812	5543.8457102083	2
0	15814	5544.09432212737	1
0	15826	5548.022303414918	2
0	15830	5551.279586926573	3
0	15831	5554.534277016796	2
0	15837	5554.958348164031	3
0	15845	5556.678946392379	4
0	15847	5557.093426202164	5
0	15848	5557.14195116341	4
0	15854	5557.343951101036	3
0	15861	5557.94249960893	4
0	15863	5558.845045471375	3
0	15870	5559.473085861711	4
0	15872	5560.262096605976	5
0	15874	5560.752178558139	6
0	15875	5561.50748213762	5
0	15881	5564.864525559505	4
0	15887	5568.376706473543	3
0	15895	5568.971743298	4
0	15897	5570.201287194566	3
0	15904	5570.99938608305	4
0	15906	5571.310113440768	5
0	15908	5572.995432329482	6
0	15909	5573.936792348366	5
0	15915	5575.297361754103	4
0	15922	5575.964868597217	5
0	15925	5576.491989593833	4
0	15932	5576.879452828048	5
0	15933	5577.076712766763	4
0	15940	5577.639072509222	5
0	15941	5579.127807909928	4
0	15948	5579.935723132354	5
0	15950	5581.386852962221	6
0	15951	5581.608754434105	5
0	15958	5584.094050370769	4
0	15964	5584.425952471603	3
0	15970	5586.464306431529	2
0	15978	5586.721638157334	3
0	15984	5593.986453963084	4
0	15985	5594.641510680011	3
0	16001	5601.489490231305	4
0	16003	5602.587962758528	5
0	16006	5606.340732709124	4
0	16011	5606.341420075265	3
0	16015	5606.619427722616	4
0	16020	5608.317277106205	3
0	16024	5608.452138123854	4
0	16028	5609.738915459344	5
0	16030	5610.999348546485	4
0	16035	5611.321367838279	3
0	16042	5612.084082833679	4
0	16043	5614.777346574435	3
0	16053	5618.601266765279	4
0	16054	5621.967101929231	3
0	16060	5621.984059251494	4
0	16062	5622.565644145975	5
0	16065	5622.797917558553	6
0	16066	5623.007930565368	5
0	16073	5624.203256286334	6
0	16075	5626.916729863668	7
0	16076	5631.369076244338	6
0	16084	5632.521690114114	7
0	16087	5633.175735861717	6
0	16094	5635.685440485918	7
0	16097	5637.039177374776	6
0	16102	5637.547133422828	5
0	16107	5639.866584458101	4
0	16112	5640.81961360384	3
0	16119	5643.433634857462	4
0	16120	5644.873357981708	3
0	16129	5647.347294318748	2
0	16134	5648.474510005701	1
0	16140	5650.098490234721	0
0	16153	5653.636709754131	1
0	16157	5655.149330086927	0
0	16163	5656.18990806912	1
0	16165	5657.693817172782	0
0	16180	5659.466369901333	1
0	16183	5660.06895128044	0
0	16194	5665.244129423217	1
0	16199	5666.735106645905	0
0	16207	5668.162662949351	1
0	16209	5668.513909680018	2
0	16212	5671.497266943618	3
0	16214	5671.952666070463	2
0	16221	5674.175930399466	1
0	16227	5676.32192603509	2
0	16228	5678.008194155363	1
0	16233	5678.988652289976	0
0	16237	5679.660760393377	1
0	16244	5686.202866529107	0
0	16251	5688.824222057124	1
0	16254	5690.403045896844	0
0	16293	5706.68314134168	1
0	16295	5707.29715064078	2
0	16296	5707.509119697024	1
0	16302	5708.188460294521	2
0	16304	5713.337198815893	1
0	16312	5713.599753758131	2
0	16315	5714.594494692817	3
0	16321	5715.763471029158	4
0	16324	5717.832477581178	3
0	16331	5718.98541603146	4
0	16332	5719.040739202264	3
0	16338	5719.489862855125	4
0	16340	5719.65875507077	5
0	16342	5724.476261269808	4
0	16347	5725.866929198076	3
0	16353	5727.117796058884	2
0	16360	5728.839985526143	1
0	16367	5732.323253105796	0
0	16374	5734.536261186803	1
0	16375	5736.734784847334	0
0	16392	5738.325872221201	1
0	16393	5738.833051040766	0
0	16401	5741.892589253251	1
0	16402	5743.869711324472	0
0	16414	5750.045915890955	1
0	16418	5756.386364509076	2
0	16420	5757.296147008898	3
0	16424	5759.114183403733	4
0	16426	5759.465087093438	5
0	16427	5759.750046097378	4
0	16435	5761.982002847985	5
0	16439	5763.1173560163	6
0	16440	5763.758680118816	5
0	16446	5764.683342554773	4
0	16452	5765.605278758664	3
0	16457	5766.089228002508	2
0	16463	5768.516446025401	1
0	16470	5769.173935333775	0
0	16486	5770.925926925785	1
0	16489	5773.118306547166	0
0	16501	5775.621850622713	1
0	16502	5776.770507712928	0
0	16524	5782.758703404897	1
0	16527	5783.993878403099	0
0	16534	5784.457590012761	1
0	16536	5786.321457979881	0
0	16560	5791.104622577423	1
0	16563	5791.760483617759	2
0	16564	5794.291968484052	1
0	16569	5794.952601330499	0
0	16575	5795.209033472325	1
0	16576	5795.293536382008	0
[...]
5	71314	24850.723440462896	9798.1069473296
5	71325	24852.95976048891	9791.7224875971
5	71330	24853.514853319975	9790.9166785215
5	71336	24855.016897938185	9778.9501906167
5	71341	24855.830210165542	9769.3413464991
5	71348	24857.770077913122	9757.4691672703
5	71370	24864.363189190954	9747.4163737125
5	71410	24876.591848433794	9749.7786184975
5	71417	24876.817616447993	9748.8392548599
5	71422	24878.024851384072	9748.0662446159
5	71433	24887.397460059655	9755.4456652766
5	71469	24896.986571041983	9750.7304140399
5	71587	24940.492312263415	9794.1629269085
5	71675	24962.079558719639	9812.3168399098
5	71685	24964.477920106787	9812.7669556914
5	71692	24966.537447812907	9812.3815782771
5	71715	24979.56588867884	9819.2345049127
5	71858	25033.705222885994	9870.295257339
5	71863	25033.950230980072	9865.180144656
5	71868	25036.836002919703	9866.9483512433
5	71875	25040.792909446187	9867.9622993416
5	71944	25065.531090208848	9892.3046358562
5	71954	25066.712065897787	9890.4613786043
5	72025	25088.848307641241	9910.6863635447
5	72332	25199.70372878329	10020.097170982
5	72337	25200.475115265075	10004.799634918
5	72342	25204.110270777749	10003.754680897
5	72354	25208.258131043475	10007.647783251
5	72368	25212.065788327596	10004.909695238
5	72373	25213.389367065538	10005.376449563
5	72380	25217.727521923635	9999.1763602456
5	72389	25225.356020579127	10001.723633607
5	72421	25240.788377633787	10013.462790776
5	72445	25246.197504308225	10015.659800989
5	72452	25247.788418678568	10016.763424497
5	72467	25250.303731306579	10003.055666178
5	72494	25259.566600127139	10010.060216705
5	72531	25272.037985890024	10022.316418661
5	72551	25277.479939831241	10027.389577744
5	72576	25281.251013052301	10024.554963965
5	72587	25284.180745927811	10024.001690049
5	72594	25288.347042727024	10021.733601427
5	72599	25290.299502528829	10023.449894684
5	72604	25292.839255846984	10021.175647779
5	72612	25296.77306184616	10014.3137511
5	72695	25332.278065740196	10038.407716426
5	72701	25333.217336551181	10031.488004693
5	72706	25335.739602683065	10029.521297328
5	72711	25336.793108051958	10017.691836009
5	72724	25340.408841403047	10020.723615673
5	72747	25346.685505653552	10014.285325974
5	72769	25360.725454487632	10020.758172536
5	72777	25362.501985288588	10015.900336564
5	72826	25379.700341437216	10032.833326764
5	72841	25389.425343026459	10039.363697782
5	72874	25397.448425092577	10037.7735645
5	72879	25398.609511643818	10037.781608455
5	72884	25402.675021842264	10036.435065455
5	72904	25408.941668064429	10031.089959959
5	72938	25418.612891483448	10036.228238893
5	72943	25418.707145587997	10035.567242899
5	72952	25422.952154228449	10028.952671041
5	72991	25433.338812124405	10037.555844606
5	73005	25435.480363125971	10037.710189318
5	73010	25438.763473391989	10025.246526188
5	73019	25443.45459521142	10028.117370182
5	73053	25452.561924010192	10035.257218555
5	73122	25484.379641765228	10041.978226365
5	73143	25491.250975376604	10044.17970281
5	73164	25497.768192712886	10033.73083376
5	73211	25511.866235503886	10045.319648938
5	73218	25512.011671200403	10044.94640675
5	73247	25522.378104143488	10047.649263961
5	73289	25541.007713980022	10066.097060765
5	73325	25557.090359338429	10072.198466352
5	73351	25562.100358907188	10070.733540341
5	73361	25568.369346316309	10061.423045502
5	73380	25573.086701568776	10053.686090086
5	73394	25575.858575138422	10056.400979223
5	73499	25608.110681005444	10086.506087823
5	73504	25608.273760599818	10086.290315976
5	73511	25609.405605990426	10078.775472301
5	73527	25617.471886612302	10085.947603827
5	73545	25619.80274837846	10082.602142914
5	73557	25621.476650813894	10082.353754036
5	73586	25629.988262196757	10083.204177998
5	74423	25919.650018096896	10371.238207433
5	74430	25924.666471986527	10371.985138581
5	74451	25933.701950886672	10366.11326161
5	74466	25935.212081608927	10360.609283716
5	74478	25937.521489188852	10353.580323919
5	74583	25971.107441527298	10373.413602515
5	74590	25971.53997147788	10370.407461468
5	74602	25973.270887665869	10371.887507742
5	74613	25977.104645028052	10370.593026438
5	74645	25985.594301434967	10371.236408106
5	74652	25987.39104729947	10368.409904142
5	74675	26003.531764527485	10377.725489621
5	75036	26126.955236021603	10500.92631674
5	75113	26152.636530231341	10525.594945451
5	75118	26153.628561374868	10516.631517235
5	75123	26153.657147643643	10516.438655811
5	75132	26158.269247071069	10517.654595477
5	75154	26164.399082116959	10513.133184972
5	75168	26176.626321226847	10517.989273957
5	75223	26196.940911878444	10537.01692613
5	75243	26202.14483111528	10535.510976173
5	75248	26204.845674764493	10526.399226296
5	75257	26208.879458905899	10530.086110048
5	75269	26215.773607870537	10536.531045809
5	75276	26216.281559903449	10533.016459364
5	75283	26219.744728386222	10532.228302449
5	75304	26228.268413160045	10540.406958397
5	75338	26237.294891923227	10535.824104013
5	75346	26238.939237513057	10529.104311597
5	75351	26239.295580317236	10522.266335249
5	75361	26245.823404983414	10526.00482344
5	75374	26248.318391424079	10514.481681502
5	75379	26252.284686124789	10516.515332912
5	75388	26260.42826269937	10522.684154885
5	75444	26278.804947757857	10536.321295781
5	75449	26280.56422945295	10533.632656951
5	75456	26282.887159399197	10530.800696386
5	75463	26287.187548338561	10523.943722347
5	75502	26299.778839612033	10535.357825556
5	75511	26303.15420491545	10534.639121229
5	75526	26307.578138873897	10530.30865467
5	75542	26311.346661357691	10519.034314567
5	75562	26315.763798728119	10506.267831057
5	75581	26319.292502009955	10503.613709207
5	75588	26323.578480856027	10501.125889788
5	75598	26330.589720880345	10505.968653171
5	75661	26346.917196705994	10518.666530087
5	75675	26356.720839454324	10524.790820072
5	75680	26357.339318181148	10506.750749715
5	75687	26360.074231189712	10505.472295479
5	75694	26364.35779792774	10499.807789925
5	75701	26369.734653323416	10499.248975928
5	75716	26375.599283572236	10504.404980006
5	75721	26378.959773940593	10494.490689912
5	75734	26385.040929912682	10499.518628147
5	75751	26388.954927887236	10502.59051998
5	75756	26391.597627974623	10502.2657485
5	75761	26393.00974295177	10502.315745177
5	75766	26393.180370390192	10497.885458709
5	75771	26393.587742794289	10497.230594256
5	75776	26394.277490503958	10492.423179776
5	75786	26399.817480527293	10488.279338916
5	75793	26403.018707416186	10488.186648494
5	75800	26406.665348789717	10489.6685519
5	75810	26407.930372738563	10489.834098995
5	75818	26411.861905771222	10487.856707549
5	75830	26419.821203253133	10488.680745041
5	75841	26425.21406484923	10493.573904501
5	75848	26427.40197049723	10495.202324706
5	75857	26432.075942614668	10490.930776459
5	75863	26433.8058618032	10476.800141845
5	75868	26434.70982171255	10476.709527627
5	75878	26441.148139576674	10478.537400359
5	75897	26446.132597802717	10477.264136289
5	75908	26452.929288554879	10479.094694868
5	75917	26456.374788366754	10477.500082029
5	75966	26480.173897527585	10498.091651854
5	76291	26590.627856386047	10605.068191629
5	76296	26592.19364587311	10592.073285751
5	76301	26593.544517209742	10592.088095552
5	76308	26595.961939321646	10589.146850939
5	76314	26598.156104315021	10585.568674093
5	76321	26599.599890627917	10584.994878618
5	76332	26600.796627736002	10572.602499749
5	76342	26605.804539536002	10570.801765467
5	76446	26639.547939199398	10595.494440002
5	76455	26642.020247616559	10583.611452891
5	76464	26645.661248754451	10584.241150101
5	76476	26647.501987821211	10585.435618124
5	76489	26649.994748498396	10586.511032975
5	76504	26656.321580116374	10591.365634672
5	76637	26701.264395147663	10629.692142401
5	76642	26702.484130759004	10621.307690267
5	76647	26703.972316827405	10620.105902066
5	76656	26710.606075082028	10624.631515925
5	76675	26713.212806354419	10620.468030431
5	76690	26722.839485259781	10604.233981537
5	76781	26750.828674707475	10625.177067145
5	76790	26753.984630985965	10609.957863637
5	76812	26762.026053223027	10612.716717336
5	76824	26765.898838971779	10612.418385999
5	76840	26776.996976377815	10611.880258982
5	76866	26785.519025138531	10616.542626995
5	76875	26790.670320686588	10618.404779465
5	76880	26792.986716168855	10619.313575786
5	76887	26794.176790819247	10612.739870108
5	76906	26801.581655652204	10613.113366653
5	76923	26808.353250336283	10618.481125631
5	76929	26809.914146271244	10617.151083311
5	76934	26811.097943911538	10605.978923017
5	76949	26823.840920169537	10616.111791291
5	77075	26864.400338535387	10656.582369509
5	77101	26871.226339028913	10663.004487529
5	77112	26874.440760759812	10656.79855259
5	77127	26883.120511235743	10663.849786174
5	77184	26901.178969697544	10673.575704194
5	77192	26901.85332412566	10672.693849816
5	77254	26920.348601611381	10689.65261911
5	77275	26926.903020745524	10694.397911279
5	77282	26927.432635783678	10670.071720806
5	77301	26929.136232123237	10668.508316859
5	77310	26934.404443013159	10669.343870376
5	77327	26938.078079571049	10668.480021676
5	77337	26944.137582315103	10672.433265884
5	77361	26955.726961641903	10679.522938435
5	77441	26985.868254003632	10693.912666089
5	77464	26994.394922750847	10686.923946447
5	77507	27009.052518816274	10697.520110662
5	77512	27009.627937307363	10687.320046224
5	77517	27009.872520796443	10687.463575277
5	77526	27013.98445361249	10690.294737486
5	77531	27015.621632055552	10679.295919148
5	77538	27019.546341929889	10659.616057105
5	77560	27022.17518244267	10659.461456195
5	77593	27033.300219829555	10664.711195842
5	77606	27035.13809912056	10659.272135808
5	77616	27038.87871962095	10647.963997815
5	77622	27040.898764950163	10649.595577838
5	77629	27041.547161495923	10647.961797981
5	77637	27043.883424746846	10649.193934979
5	77654	27048.742735546913	10647.712142195
5	77719	27070.498970668298	10668.183991473
5	77726	27071.381158009438	10659.877012896
5	77808	27095.523229854342	10678.8032614
5	78001	27165.717618014185	10748.606654697
5	78011	27166.14736312744	10744.529718863
5	78018	27168.485363795798	10743.612239333
5	78023	27169.552606459965	10738.463745871
5	78032	27174.164513779591	10730.108152996
5	78060	27184.844655604509	10739.107819301
5	78142	27217.555399249296	10770.422558901
5	78155	27221.053490691801	10770.594611916
5	78176	27227.298156046615	10773.644891897
5	78181	27229.304476022067	10770.067454618
5	78187	27235.396494330739	10768.972998207
5	78199	27240.680550761688	10759.669683696
5	78224	27249.952020611075	10767.618858368
5	78270	27262.640466918344	10772.644197382
5	78275	27263.02876053	10769.996763496
5	78280	27266.844262985391	10772.133708576
5	78285	27271.471001461538	10772.973044587
5	78290	27277.828934996893	10770.198180696
5	78295	27283.385861809234	10765.846246387
5	78304	27286.73936186468	10768.318970593
5	78315	27290.527057568247	10769.867641621
5	78406	27319.567701409437	10797.001605811
5	78413	27322.044827086823	10797.192750008
5	78438	27326.529803967023	10797.069498719
5	78833	27476.312320532623	10937.603401586
5	78838	27478.699282466543	10937.933193695
5	78847	27486.763238050579	10942.298934135
5	78908	27513.060225606189	10942.094247847
5	78913	27518.96320827142	10947.141398944
5	78920	27520.48019961221	10937.030871473
5	78925	27522.16755376766	10928.630902463
5	78934	27525.490240853217	10929.565032926
5	78957	27532.958731829388	10933.128716937
5	78970	27534.607999365272	10931.634704427
5	78994	27541.739512329087	10931.185467661
5	79008	27547.977455021842	10937.394598573
5	79028	27554.702792771499	10935.586914299
5	79117	27588.204141975131	10951.549986989
5	79127	27589.557509133783	10930.011083837
5	79147	27603.807774459746	10941.797576957
5	79197	27623.124603693924	10958.400940502
5	79228	27635.036253119648	10969.637851185
5	79373	27694.547934320532	11027.496130086
5	79382	27698.188664984935	11028.947708501
5	79396	27700.881538177186	11028.632992056
5	79425	27707.582636159279	11032.463347217
5	79433	27710.340506618913	11028.386126777
5	79445	27713.29640985056	11029.940356453
5	79450	27713.405799564577	11014.563283253
5	79455	27713.981527849578	11006.776803622
5	79462	27716.292234331028	11004.799947049
5	79475	27721.001851743346	10990.472759444
5	79482	27721.736246222527	10989.827322818
5	79493	27726.543336102892	10993.45745313
5	79498	27731.90589312227	10995.252864716
5	79507	27737.81417974044	10979.493833085
5	79520	27748.515081349629	10986.931536316
5	79525	27751.310975699016	10970.228337274
5	79536	27757.531587100515	10957.456987425
5	79900	27885.880260506785	11083.753536498
5	79945	27894.979045509345	11088.933178012
5	79962	27902.296608499644	11094.65455262
5	79975	27907.010161364554	11098.944041962
5	79980	27907.333545802545	11095.713099378
5	79991	27910.458358454032	11086.595483882
5	80011	27915.726577030013	11074.769968324
5	80018	27916.277552748658	11074.25146013
5	80029	27921.445710428649	11072.467027819
5	80036	27923.732978693031	11071.166298139
5	80048	27931.163573298759	11078.243476936
5	80068	27940.686639026996	11086.035897619
5	80081	27947.402455105895	11084.166574421
5	80095	27949.460264321994	11069.010083506
5	80115	27952.992712407986	11062.278551234
5	80120	27953.015472505684	11052.439805309
5	80128	27953.886519657149	11053.259987072
5	80143	27961.533820008869	11034.55332612
5	80153	27962.078456052271	11026.84417898
5	80160	27966.135889176747	11025.079881434
5	80172	27968.786809797438	11027.414119523
5	80184	27974.082316727299	11026.642470037
5	80198	27976.994393402163	11020.838959999
5	80209	27979.864884126697	11011.155111671
5	80216	27981.659432936413	11007.366978311
5	80221	27985.688520935496	11010.991509448
5	80230	27989.678020552145	11010.786562652
5	80276	28001.757741228657	11010.218386811
5	80283	28002.453658820872	11008.927041136
5	80362	28032.31630988727	11037.294798282
5	80371	28033.768395130179	11032.070338092
5	80394	28038.999659995183	11029.096265035
5	80407	28046.07937099479	11029.018580222
5	80418	28055.019073032144	11037.87504586
5	80452	28060.726280478024	11035.374859047
5	80460	28068.428728773592	11035.992534176
5	80469	28071.530554100461	11037.705985748
5	80484	28075.41266354343	11027.521654404
5	80495	28076.926936840533	11028.3051772
5	80502	28077.994229643482	11028.485986194
5	80521	28083.783256856987	11032.34674684
5	80530	28090.762452192996	11035.450252479
5	80544	28095.279342986434	11037.888892874
5	80563	28103.099498277263	11036.25465398
5	80593	28110.982778644491	11034.384681033
5	80606	28114.595415362671	11027.969694881
5	80743	28157.188019439963	11070.27423798
5	80989	28252.784055114861	11164.872887108
5	80998	28254.792742168098	11150.878974737
5	81023	28259.282502051258	11129.221948253
5	81037	28267.670734904958	11130.911114806
5	81076	28283.637736694438	11146.346041889
5	81276	28359.054839403492	11220.958089298
5	81293	28362.442178966938	11218.825769744
5	81298	28363.40754699623	11211.890917434
5	81310	28366.812208470973	11210.240884189
5	81329	28369.102530516513	11204.912015423
5	81345	28372.812338037439	11204.527389575
5	81350	28373.047039324775	11202.998380656
5	81355	28375.113404379574	11204.341497068
5	81360	28379.509047706178	11206.738193828
5	81373	28385.19838488756	11209.160274761
5	81380	28386.831300495358	11204.576941147
5	81399	28396.742317009033	11210.574173989
5	81418	28404.550746356985	11215.594088096
5	81423	28407.655085844956	11212.419860292
5	81430	28408.919203274326	11212.209674191
5	81879	28555.171347158554	11343.452695058
5	81897	28560.349079554113	11344.410757115
5	82120	28632.374909492139	11410.72517169
5	82127	28635.132960339776	11406.12749916
5	82135	28636.126308500749	11398.352456128
5	82140	28637.387422519156	11392.98608947
5	82147	28640.295234575455	11393.489109196
5	82159	28654.475340592582	11407.028805883
5	82168	28655.414631915608	11399.447933918
5	82180	28657.206614503477	11396.414811284
5	82187	28661.496204221741	11399.873023893
5	82199	28663.465401121779	11401.318101535
5	82212	28668.19222191486	11405.809565477
5	82235	28674.934139851247	11398.372211779
5	82279	28688.540199662548	11410.882811104
5	82304	28703.599855599114	11424.906573474
5	82328	28707.149555953951	11420.010957416
5	82341	28712.256207054192	11422.853345537
5	82346	28713.599591598862	11419.793730835
5	82351	28715.319111902717	11416.103077754
5	82358	28716.103784658138	11416.713469611
5	82373	28722.923811641066	11420.578145618
5	82603	28800.783359071367	11480.761550571
5	82613	28809.094945325324	11480.867277014
5	82725	28851.966551291836	11515.185239989
5	82734	28854.173755906908	11516.681106032
5	82772	28866.18255866283	11528.077074014
5	82786	28868.807812239359	11530.33318548
5	82797	28874.576142178056	11535.818068287
5	82830	28879.235303089794	11537.978961942
5	83300	29026.520089850063	11667.985918601
5	83305	29028.915273831811	11655.204800708
5	83312	29032.866083922136	11651.645774733
5	83319	29039.355298371509	11656.044927471
5	83324	29040.963876525493	11656.827690256
5	83335	29046.594303896343	11656.5431539
5	83354	29056.454116544383	11664.312789269
5	83360	29056.600740854662	11657.721552863
5	83373	29063.712662171021	11640.521387263
5	83437	29075.296603787247	11638.79044915
5	83453	29083.688882315815	11645.946773429
5	83496	29101.011363852758	11661.293019999
5	83503	29102.33782228803	11654.63317766
5	83520	29107.945627496886	11660.188719049
5	83607	29131.714608608338	11670.91624765
5	83616	29133.336513380437	11664.727199134
5	83630	29138.311168342757	11665.27663212
5	83641	29142.678839416302	11664.158776399
5	83656	29149.074816619671	11668.120241073
5	83711	29169.189283888277	11687.599598157
5	83721	29172.890431089276	11689.356489177
5	83728	29173.310467714131	11683.79447392
5	83745	29179.126196267109	11681.990715246
5	83988	29268.902926497126	11767.587567117
5	83998	29273.77299002103	11771.532794087
5	84566	29476.080902913523	11970.428583985
5	84571	29481.556636298874	11972.028731888
5	84577	29483.130701671704	11968.594790226
5	84582	29483.377915340422	11966.735957688
5	84587	29486.32818174027	11965.301082742
5	84598	29492.147450439802	11968.229954107
5	85016	29629.338609321284	12100.680414885
5	85028	29631.824289036658	12098.42088947
5	85052	29640.365984857447	12097.339099745
5	85087	29654.259127378178	12101.214857495
5	85094	29656.918037241129	12102.332130694
5	85109	29663.448778663988	12102.687846131
5	85125	29671.252434368824	12092.327673498
5	85159	29682.51496767497	12093.152160011
5	85176	29688.257244463433	12098.716122233
5	85203	29692.62923968137	12096.04781553
5	85210	29700.19582011753	12095.64883212
5	85229	29714.39429782393	12108.815938869
5	85249	29720.444628637079	12114.798002475
5	85259	29722.026041849501	12111.36927829
5	85266	29725.6995866477	12099.527234778
5	85286	29731.970615198908	12102.266774757
5	85299	29737.392419152688	12102.941377333
5	85329	29744.805184671993	12108.6250826
5	85336	29747.245795107331	12105.808685425
5	85368	29753.648531394005	12109.304604684
5	85374	29753.967576725353	12106.786480071
5	85381	29754.838319293681	12104.538861214
5	85386	29757.667905631482	12104.563146165
5	85395	29759.509160983941	12102.902792999
5	85400	29761.64075503537	12101.22887129
5	85416	29767.440071291179	12104.135533755
5	85510	29794.276061341068	12116.623207668
5	85535	29800.777967394235	12119.046727532
5	85549	29809.575627807586	12127.042219311
5	85562	29813.819385424648	12089.67754615
5	85569	29817.757702284806	12084.894417313
5	85576	29821.515760415477	12085.321439547
5	85588	29826.705777753348	12074.963810847
5	85593	29828.018127705378	12073.308278111
5	85600	29830.437677360384	12074.628259815
5	85614	29836.94983806407	12074.943193805
5	85841	29916.429179754138	12152.259622294
5	85849	29919.319078996339	12147.728075538
5	85860	29922.829058659934	12137.836559849
5	85867	29923.881386147995	12134.126216313
5	85882	29932.742398802833	12139.82091686
5	85889	29936.657336504667	12140.863658206
5	85898	29940.051017321802	12129.551703575
5	85989	29970.248692345243	12158.797012124
5	85994	29971.451762164308	12156.556721648
5	86003	29975.341593413399	12145.550648886
5	86025	29987.620287302113	12155.622497315
5	86068	29996.704479294425	12164.443219349
5	86076	29999.136058580309	12165.086631853
5	86081	29999.630986494195	12155.762557761

