version 2
run Third-n5-9-20191016-14:53:56-1984
attr configname Third-n5
attr datetime 20191016-14:53:56
attr experiment Third-n5
attr inifile omnetpp.ini
attr iterationvars ""
attr iterationvarsf ""
attr measurement ""
attr network org.omnetpp.queueing.Pizza
attr processid 1984
attr repetition 9
attr replication ""
attr resultdir results
attr runnumber 9
attr seedset 9
param **.PS.maxInventoriedPS 5
param **.U1.interArrivalTime exponential(4s)
param **.U2.interArrivalTime exponential(6s)
param **.PS.serviceTimeForInventoryU1 exponential(1.4s)
param **.PS.serviceTimeForInventoryU2 exponential(1.4s)
param **.PS.serviceTimeDirectU1 exponential(1.8s)
param **.PS.serviceTimeDirectU2 exponential(1.8s)
param **.PS.probabilityProducing 0.8
param **.CS.serviceTimeU1 exponential(2.3s)
param **.CS.serviceTimeU2 exponential(2.3s)

vector 0 Pizza.EntryQueueU1 queueLength:vector ETV
attr interpolationmode sample-hold
attr title "queue length, vector"
vector 1 Pizza.CS queueLength:vector ETV
attr interpolationmode sample-hold
attr title "queue length, vector"
vector 2 Pizza.EntryQueueU2 queueLength:vector ETV
attr interpolationmode sample-hold
attr title "queue length, vector"
vector 3 Pizza.sink lifeTime:vector ETV
attr interpolationmode none
attr title "lifetime of arrived jobs, vector"
attr unit s
vector 4 Pizza.sink lifeTimeU2:vector ETV
attr interpolationmode none
attr title "lifetime of arrived jobs, vector"
attr unit s
0	0	0	0
0	18	2.829327048168	1
0	22	3.694618899783	0
0	28	5.559378860882	1
0	30	5.717455128216	2
0	31	6.74611145567	1
0	37	8.702052029328	0
0	53	19.473560356322	1
0	54	21.424267238493	0
0	63	23.555370858265	1
0	71	27.915302724402	0
0	96	39.938974061885	1
0	97	42.028332393508	0
0	114	45.618841681215	1
0	116	46.222868942788	2
0	117	47.104718044583	1
0	123	48.510521516571	2
0	125	49.340383124476	3
0	130	55.959638097655	2
0	135	56.052222883351	1
0	140	56.152955769216	0
0	166	59.962473683339	1
0	167	60.145040781073	0
0	194	70.461135452482	1
0	196	72.140234881765	2
0	198	72.158532050033	3
0	199	72.846777670286	2
0	206	74.507287975432	3
0	207	75.854542355673	2
0	213	76.048498619579	3
0	215	76.198359664224	4
0	216	76.416116238408	3
0	222	77.255821784748	4
0	223	78.094429218096	3
0	232	79.406681925537	4
0	235	81.050986656867	5
0	237	82.257511602079	4
0	246	84.300660354776	5
0	252	87.555372654181	6
0	253	90.384618825638	5
0	260	91.372718891595	6
0	261	92.316400986951	5
0	266	94.100295813878	4
0	272	94.860452141326	3
0	281	97.16027162617	2
0	287	97.575968740458	3
0	289	97.605218451423	4
0	293	98.821945403383	5
0	295	99.514718718318	6
0	296	100.423894432614	5
0	304	102.429486504163	6
0	309	105.588777375163	7
0	310	105.726740765344	6
0	315	106.593065239325	5
0	324	110.200401862166	4
0	330	111.303652978269	5
0	334	114.450098003029	6
0	336	114.620350485313	7
0	337	117.921356730172	6
0	344	118.582426235127	5
0	350	120.203247922137	4
0	355	120.378073807288	3
0	363	123.95341807993	4
0	364	123.979094969685	3
0	369	125.00304955321	2
0	376	129.615206158604	3
0	377	129.990035505155	2
0	385	133.042357618585	3
0	389	134.697697558351	4
0	394	137.886568889461	3
0	399	138.707374249223	2
0	404	138.876124810471	1
0	408	139.948116107134	2
0	412	141.280091863808	3
0	415	145.406233464246	2
0	423	150.026015971301	1
0	431	152.27406341476	0
0	456	156.689324033469	1
0	458	157.617860459319	0
0	469	159.522988191365	1
0	470	159.611528502566	0
0	476	159.613117427209	1
0	486	166.620227252	0
0	503	169.649593420143	1
0	504	170.727273852218	0
0	526	182.048318753245	1
0	531	183.616597033626	2
0	533	184.543308279053	1
0	539	185.520026289132	0
0	553	190.739784044175	1
0	556	192.488434410818	0
0	562	193.084451509673	1
0	563	193.443619640533	0
0	576	197.828832353813	1
0	578	198.445926879703	2
0	579	198.528740582105	1
0	585	199.19377791538	2
0	593	204.076166942088	1
0	598	204.17453431263	0
0	648	215.731724716569	1
0	654	217.686756361525	2
0	655	218.039121563597	1
0	660	218.570765037107	0
0	673	220.906927213652	1
0	676	222.219751024584	2
0	678	223.371475055678	3
0	679	223.619419762353	2
0	687	227.712256824227	1
0	695	230.148973300235	2
0	700	232.100216222806	3
0	702	232.944606422373	4
0	703	233.618784501692	3
0	713	241.893375682593	2
0	724	243.246683313806	3
0	726	244.478651215946	4
0	727	245.333620185915	3
0	737	248.670433732647	4
0	738	249.367069939562	3
0	750	257.157610254291	2
0	757	258.105213309729	1
0	763	258.766519217387	0
0	769	258.839237804311	1
0	771	261.828976923773	0
0	793	263.606160070008	1
0	795	264.734147479884	2
0	799	267.737396321855	3
0	801	268.994220858969	4
0	803	270.216184950719	5
0	804	272.963302721515	4
0	812	275.038407096506	5
0	813	275.536263499442	4
0	818	276.404326554413	3
0	823	277.840879258166	2
0	829	278.237185542517	3
0	831	278.34836142909	4
0	834	278.96895781402	5
0	835	281.030122202668	4
0	843	284.937967028236	3
0	851	287.040937828701	2
0	857	287.424942078934	1
0	862	289.043703775286	0
0	866	289.805690682496	1
0	872	291.498776548459	2
0	879	294.193756286291	1
0	887	296.461696175563	2
0	889	298.499958766452	1
0	898	302.00149326439	2
0	900	302.65983925542	3
0	902	302.774392224522	4
0	904	303.064719271262	5
0	910	305.088226387295	4
0	916	309.099551133118	3
0	923	309.45319871365	4
0	924	310.273482002185	3
0	930	312.872312413074	2
0	938	315.456048870458	1
0	945	317.214314499056	0
0	979	326.412224224307	1
0	980	327.437334449276	0
0	1011	344.303365759252	1
0	1013	345.273275154449	2
0	1019	345.766793046346	3
0	1020	346.562699525796	2
0	1027	348.041453241854	3
0	1030	349.406643917644	2
0	1035	350.090719036978	1
0	1040	350.188984810503	0
0	1057	357.275803833142	1
0	1058	358.096843951961	0
0	1085	368.914358656758	1
0	1086	369.890930880256	0
0	1092	370.421874439799	1
0	1093	371.458123189106	0
0	1137	388.760304004964	1
0	1139	389.798813157048	2
0	1143	394.724453490727	3
0	1145	395.214847918293	4
0	1146	395.555461314374	3
0	1151	396.319986716234	2
0	1156	396.363497328975	1
0	1161	397.550181442315	0
0	1172	401.285115069087	1
0	1173	401.303388425418	0
0	1196	409.037044927738	1
0	1199	410.044350619855	2
0	1201	410.190201637826	3
0	1202	410.8555610418	2
0	1208	411.073200797979	3
0	1211	413.052746063453	4
0	1216	417.496552158432	5
0	1218	418.707556393661	6
0	1219	420.012236156074	5
0	1226	420.528616837898	4
0	1235	423.42579523118	3
0	1241	424.619243806065	2
0	1246	424.659681496475	1
0	1255	431.166723691916	0
0	1290	438.970160059776	1
0	1291	441.476213696954	0
0	1299	443.920060034917	1
0	1301	445.404659637672	2
0	1303	445.430880123475	3
0	1304	447.002783674829	2
0	1309	447.017917916271	1
0	1314	448.214423719805	0
0	1323	449.254427345269	1
0	1326	450.200035013801	0
0	1332	450.526999085847	1
0	1333	451.078135417237	0
0	1339	454.427187738433	1
0	1341	456.222186692512	0
0	1364	460.045819780513	1
0	1366	460.691491627741	0
0	1385	464.212923492391	1
0	1387	465.948854361652	2
0	1392	468.047424963268	3
0	1393	468.92081047061	2
0	1398	470.553533036337	1
0	1403	471.659675892312	0
0	1414	474.825774381809	1
0	1416	476.72027119344	0
0	1438	482.323978943803	1
0	1441	482.904320736987	0
0	1447	482.965076023611	1
0	1448	483.005602298938	0
0	1457	486.283083608495	1
0	1459	486.942562789375	2
0	1460	487.48918395661	1
0	1465	488.220401024549	0
0	1471	488.904868965966	1
0	1473	489.288324136368	2
0	1474	490.973582660802	1
0	1479	491.373815067994	0
0	1506	498.321411398816	1
0	1508	500.03219472996	2
0	1510	501.315888924532	3
0	1514	503.503964155476	4
0	1515	503.977857075241	3
0	1519	504.207922574986	4
0	1521	504.751755789483	5
0	1523	504.897780742265	6
0	1536	510.414028736997	7
0	1542	512.807500162695	6
0	1548	515.835858566072	5
0	1557	517.550183573546	4
0	1562	517.566120603455	3
0	1568	517.708523306382	4
0	1570	520.174973909168	3
0	1575	520.816109151586	2
0	1580	520.918520864404	1
0	1585	522.028678252083	0
0	1599	524.037439132882	1
0	1602	524.984565253157	2
0	1606	526.374997082259	3
0	1608	526.664839677969	4
0	1616	531.131774552928	5
0	1618	531.1633350434	6
0	1620	532.392969878151	7
0	1622	533.098142778707	8
0	1623	534.669472534159	7
0	1638	539.722236973168	6
0	1645	540.841155199268	5
0	1650	541.000527442583	4
0	1657	541.563799598864	5
0	1658	542.422172412694	4
0	1664	542.713097312241	3
0	1669	543.409331478682	2
0	1675	543.604122474405	3
0	1677	543.864809587721	2
0	1685	547.793605842313	1
0	1690	547.841880875111	0
0	1694	549.037199212949	1
0	1696	549.710733181323	2
0	1698	549.825090242307	3
0	1700	554.186076131864	4
0	1702	555.404758196165	5
0	1710	561.278793126668	6
0	1711	561.591771247715	5
0	1716	568.951260902161	4
0	1721	569.833981483637	3
0	1729	573.017254465309	2
0	1736	573.545706527421	3
0	1737	574.305940721228	2
0	1747	576.008069686302	3
0	1748	576.045896685136	2
0	1754	576.368873455555	3
0	1756	578.746068141716	2
0	1762	579.335140768471	3
0	1765	580.182641946691	2
0	1771	581.086416088907	1
0	1776	581.304468912118	0
0	1798	587.029790103164	1
0	1799	588.745536524308	0
0	1834	597.444915801726	1
0	1835	598.561682346556	0
0	1846	602.939575088808	1
0	1854	604.75716912953	2
0	1858	610.778652060659	1
0	1863	611.691379834715	0
0	1870	613.791229948599	1
0	1871	614.689019582016	0
0	1878	617.081388862448	1
0	1880	618.628503347424	0
0	1899	621.194531450502	1
0	1901	621.436214329325	2
0	1905	625.472058761927	1
0	1910	626.294932369021	0
0	1929	632.242912244942	1
0	1930	633.057722468082	0
0	1962	642.792876123907	1
0	1964	643.560681612523	2
0	1967	643.94026013958	1
0	1975	648.080293473737	2
0	1976	650.698072180615	1
0	1981	650.891656783967	0
0	1992	651.64569357342	1
0	1996	652.396362479723	2
0	1998	653.27872973968	3
0	2005	655.397777348863	4
0	2006	657.394206509152	3
0	2013	657.769462242082	4
0	2014	658.379806329498	3
0	2021	659.981157369209	2
0	2028	660.93982575771	1
0	2034	661.682416931348	0
0	2062	671.374273129602	1
0	2063	672.353158217478	0
0	2070	673.868282466702	1
0	2071	674.47701572293	0
0	2082	675.846030759085	1
0	2087	677.347577613387	2
0	2088	677.37204567978	1
0	2094	677.758846340755	2
0	2096	679.528800661974	1
0	2103	680.763718650363	0
0	2116	682.090073333456	1
0	2119	682.546243138637	0
0	2131	683.897207284082	1
0	2134	686.36070824396	0
0	2140	686.65699859739	1
0	2141	688.271621227094	0
0	2152	689.896063540097	1
0	2154	690.689917446996	0
0	2163	692.452262513999	1
0	2167	694.554226787858	2
0	2171	695.453709208834	3
0	2173	695.459259654817	4
0	2174	696.699599010462	3
0	2179	697.030298116544	2
0	2184	697.467994301689	1
0	2190	697.604005255376	2
0	2193	698.714994874415	3
0	2195	699.479714413825	4
0	2199	700.25643637914	3
0	2206	702.370374867154	2
0	2212	705.290507570763	1
0	2217	705.488209610517	0
0	2257	723.155121116078	1
0	2260	727.02119318644	0
0	2266	727.175307185022	1
0	2267	727.508690064836	0
0	2279	731.777653207262	1
0	2282	733.623972355601	0
0	2289	735.735462054223	1
0	2290	736.362165720771	0
0	2297	736.749341905609	1
0	2298	736.881285982757	0
0	2312	739.38332384782	1
0	2313	740.630351280191	0
0	2336	744.610721142178	1
0	2342	746.765372116909	2
0	2346	748.916248914647	1
0	2354	749.589842063976	0
0	2360	749.961388038976	1
0	2361	750.163387849954	0
0	2402	763.208403201375	1
0	2403	764.220990483535	0
0	2427	768.794329575786	1
0	2428	769.211343551427	0
0	2443	772.44643941839	1
0	2447	775.154670631797	0
0	2463	779.974361859031	1
0	2466	780.010386156485	0
0	2473	782.747441129636	1
0	2475	783.362120388722	2
0	2477	786.023866158878	3
0	2479	791.545374232495	4
0	2481	792.00236520798	5
0	2483	792.379221993519	6
0	2487	797.19947145692	7
0	2488	797.24905227245	6
0	2493	798.384887857517	5
0	2500	799.535254624017	4
0	2508	804.23246916068	5
0	2509	804.805855236967	4
0	2515	805.002421664584	5
0	2518	805.953085351531	4
0	2527	807.287479041074	3
0	2533	809.024832635654	4
0	2535	809.458561066296	5
0	2537	809.622153116418	6
0	2539	812.689401412956	5
0	2547	815.351904917108	6
0	2548	815.400085349657	5
0	2557	816.880091068005	4
0	2567	819.464062554308	3
0	2572	819.54019831669	2
0	2580	821.867941729412	3
0	2581	824.455691488573	2
0	2593	828.6458476465	3
0	2594	829.191515940105	2
0	2600	830.454809391034	1
0	2608	834.169598964726	0
0	2615	837.544599792563	1
0	2616	840.084363118345	0
0	2642	845.465652106904	1
0	2643	846.313435308269	0
0	2650	847.156736093061	1
0	2656	848.683621936517	2
0	2658	849.829572347639	3
0	2659	850.269020257407	2
0	2666	850.545722107869	1
0	2674	852.246361069265	0
0	2680	852.565286749531	1
0	2684	853.375263827394	0
0	2703	857.118877835776	1
0	2704	857.285430118102	0
0	2710	858.38740939936	1
0	2714	862.497077022446	0
0	2723	868.642939367738	1
0	2725	869.448822145203	2
0	2726	872.104233260519	1
0	2732	872.145413520642	2
0	2734	872.218733974722	3
0	2735	872.255774373038	2
0	2741	873.905492280403	1
0	2748	876.503566440433	0
0	2759	876.910816747626	1
0	2760	877.233856921147	0
0	2767	879.899994944236	1
0	2770	881.961154423735	0
0	2776	882.807166151314	1
0	2778	884.77711882794	0
0	2784	885.038904349079	1
0	2786	885.621600609251	2
0	2790	890.033367489183	1
0	2798	892.822454829722	2
0	2803	899.47815819817	1
0	2810	900.774593265498	0
0	2828	904.47159345428	1
0	2830	904.551132653614	2
0	2832	904.971713722964	3
0	2833	906.087113166739	2
0	2843	907.690952788788	3
0	2845	907.789616561576	4
0	2847	909.149903060478	3
0	2852	910.12019718282	2
0	2857	910.721479361099	1
0	2864	910.90896775224	2
0	2869	913.89645875132	1
0	2878	917.464742409694	2
0	2879	918.549916306126	1
0	2888	923.324068534262	2
0	2889	924.373278355992	1
0	2901	928.19408805739	2
0	2903	928.454540204372	3
0	2907	932.333158931023	4
0	2908	932.509753904291	3
0	2913	933.148467271133	2
0	2918	933.389616301139	1
0	2924	933.986242999229	2
0	2925	934.204910219361	1
0	2930	935.796740080265	0
0	2937	937.103323003115	1
0	2939	938.471575899428	0
0	2945	939.346904671736	1
0	2946	940.478928844647	0
0	2997	953.913015492667	1
0	2998	954.33431542935	0
0	3015	956.456327343659	1
0	3016	956.970234345815	0
0	3031	958.070446730908	1
0	3036	959.661489460296	0
0	3059	965.299125868933	1
0	3061	966.645469567151	2
0	3063	967.180627762807	3
0	3065	968.875500526688	4
0	3068	969.61524094266	3
0	3076	973.348333778155	2
0	3082	973.860130134664	1
0	3087	974.094831387604	0
0	3100	978.407893323299	1
0	3103	979.437769740012	2
0	3104	979.443208934934	1
0	3111	980.367511162351	2
0	3116	982.508917096204	1
0	3128	987.162631618499	2
0	3137	993.327175435422	1
0	3144	993.879103813288	2
0	3146	994.303595118396	3
0	3147	994.306002167284	2
0	3153	996.800138761817	1
0	3158	997.338935827354	0
0	3178	1001.573564570317	1
0	3180	1002.71402133759	2
0	3181	1004.241383051743	1
0	3187	1004.372403348176	2
0	3189	1004.99281647845	3
0	3191	1006.109488191126	2
0	3198	1006.545944817691	1
0	3203	1007.323542004616	0
0	3214	1008.82994340911	1
0	3215	1008.910567418789	0
0	3252	1016.463255005991	1
0	3255	1018.592310255083	0
0	3265	1022.517086230222	1
0	3266	1024.575347184682	0
0	3280	1027.539828427285	1
0	3282	1028.091968279755	2
0	3285	1028.127392192338	3
0	3288	1030.195859619545	2
0	3294	1030.430257469454	3
0	3298	1033.292359155269	2
0	3304	1033.67996480591	3
0	3309	1038.64149569926	2
0	3316	1040.58468071342	3
0	3319	1041.55371044598	2
0	3325	1044.67491362144	1
0	3332	1046.562349938157	2
0	3333	1047.901817570474	1
0	3339	1049.013001988029	0
0	3345	1050.378875482798	1
0	3346	1051.573318642075	0
0	3380	1059.581187391276	1
0	3382	1061.003509865857	2
0	3387	1064.138985173589	1
0	3396	1065.551763418235	2
0	3398	1065.885541506603	3
0	3400	1066.952156680673	2
0	3405	1067.390655623015	1
0	3410	1069.485683747242	0
0	3414	1070.869414058075	1
0	3417	1073.298412407006	0
0	3441	1083.94392352096	1
0	3442	1084.367101423115	0
0	3454	1089.593873968172	1
0	3455	1091.241370402815	0
0	3462	1092.098421975042	1
0	3463	1094.143171075512	0
0	3471	1095.733978117778	1
0	3473	1097.59755598978	0
0	3486	1099.940572981878	1
0	3487	1102.139959978766	0
0	3504	1104.829550455544	1
0	3505	1105.522328620155	0
0	3511	1106.444072112256	1
0	3513	1106.917254358278	2
0	3514	1106.994225235575	1
0	3520	1107.483605032786	0
0	3533	1113.837508140748	1
0	3536	1114.688906956241	0
0	3549	1116.414639095996	1
0	3551	1116.591240835849	2
0	3553	1116.654757260549	3
0	3554	1117.694515659474	2
0	3563	1119.086998022032	1
0	3568	1119.325805524497	0
0	3584	1121.358581924067	1
0	3587	1124.223162585422	0
0	3594	1126.3260599758	1
0	3595	1126.542516194319	0
0	3614	1133.490945884447	1
0	3617	1134.61727859551	0
0	3623	1135.075306335599	1
0	3627	1135.908933678598	2
0	3629	1137.999606859087	1
0	3636	1143.018979363532	2
0	3637	1144.274813695225	1
0	3644	1147.319940994041	2
0	3645	1147.805955468959	1
0	3650	1149.154314634134	0
0	3666	1152.712580504855	1
0	3671	1153.764624805617	0
0	3677	1155.842556700072	1
0	3679	1157.640306104822	0
0	3693	1161.336993107101	1
0	3694	1161.67480528691	0
0	3747	1178.03855155163	1
0	3749	1178.374169279584	2
0	3751	1178.639848099054	3
0	3758	1182.929092049139	2
0	3763	1183.328770755247	1
0	3768	1183.947493343124	0
0	3781	1191.434731523348	1
0	3788	1195.836926889624	2
0	3793	1199.195179499588	1
0	3802	1200.294332293665	0
0	3815	1203.967373084607	1
0	3816	1205.215332896317	0
0	3824	1208.863958261484	1
0	3829	1211.805213875911	2
0	3830	1213.844958343447	1
0	3836	1214.193920828986	2
0	3837	1214.315577009649	1
0	3842	1214.847180987269	0
0	3871	1224.064788256295	1
0	3872	1224.709049259159	0
0	3894	1231.813250243393	1
0	3896	1231.849568932897	2
0	3898	1233.282534197909	3
0	3900	1233.291073261399	4
0	3903	1234.216124998896	3
0	3908	1234.354318451003	2
0	3913	1234.630848724634	1
0	3918	1235.022478862773	0
0	3934	1239.06419294138	1
0	3935	1240.709421913986	0
0	3947	1242.029871120988	1
0	3949	1242.245661334959	2
0	3952	1243.377420859318	3
0	3953	1243.979126097371	2
0	3959	1244.095874310875	3
0	3962	1245.158298285294	4
0	3963	1245.666268031106	3
0	3972	1248.031497329762	4
0	3973	1248.890040950087	3
0	3978	1249.366853387871	2
0	3984	1249.808750793789	3
0	3987	1250.61765808212	4
0	3988	1250.793467208791	3
0	3994	1251.41886592393	2
0	4000	1252.603119859056	3
0	4005	1254.344676569869	4
0	4007	1255.287406482177	3
0	4012	1255.943548847141	2
0	4017	1256.520729395883	1
0	4022	1258.837806855009	0
0	4029	1259.225076344863	1
0	4032	1259.284046005879	2
0	4034	1259.357804089477	3
0	4035	1259.369134717047	2
0	4045	1262.933617151156	1
0	4051	1263.130474418124	0
0	4058	1264.038555936617	1
0	4060	1264.863089997384	2
0	4063	1266.830193895743	1
0	4068	1266.983272620794	0
0	4074	1269.106117663066	1
0	4080	1272.793699150395	0
0	4104	1280.875383931361	1
0	4106	1282.053941448273	2
0	4109	1283.790327996821	1
0	4114	1287.520392377096	0
0	4140	1292.605956791197	1
0	4144	1293.483439555841	2
0	4145	1293.971855242948	1
0	4151	1294.068918975844	2
0	4153	1294.408607238372	3
0	4157	1297.679996015208	2
0	4164	1297.914381658723	3
0	4166	1298.894922556736	4
0	4168	1299.564535564857	5
0	4169	1301.959903731722	4
0	4176	1305.691999600497	5
0	4178	1307.258771184406	6
0	4180	1307.409643189625	7
0	4181	1307.968628891928	6
0	4187	1308.62953864916	5
0	4192	1308.843096351641	4
0	4197	1309.422664511763	3
0	4204	1310.570553266782	4
0	4211	1316.249511951857	5
0	4213	1316.263858977977	6
0	4215	1317.826257378009	7
0	4216	1319.65835972878	6
0	4222	1320.461105190619	5
0	4228	1321.11595684055	4
0	4233	1321.656563561158	3
0	4239	1322.725135059911	4
0	4243	1324.420024261976	3
0	4257	1332.055576775142	4
0	4258	1333.586232001977	3
0	4264	1335.169139869072	2
0	4271	1337.129155578645	3
0	4272	1338.448193419331	2
0	4281	1340.846472936335	3
0	4283	1342.268353474498	4
0	4285	1342.51615986167	5
0	4287	1346.679421163013	6
0	4289	1347.393811128991	7
0	4291	1347.636260463565	8
0	4292	1347.646489249385	7
0	4298	1348.436373651769	6
0	4304	1352.321095772657	5
0	4309	1353.683731457132	4
0	4316	1354.63111838467	5
0	4319	1357.040990264691	6
0	4320	1357.922132872373	5
0	4327	1359.000269476109	6
0	4329	1360.037753423249	7
0	4331	1360.407440619026	8
0	4332	1360.606127395821	7
0	4340	1361.470065439712	6
0	4346	1361.521730359614	7
0	4348	1361.586392404018	6
0	4355	1362.668822101031	5
0	4366	1366.906769342943	4
0	4373	1368.882956258999	3
0	4380	1373.033447187615	2
0	4385	1374.142151042477	1
0	4393	1374.421653071895	0
0	4399	1374.664960285328	1
0	4401	1375.241217155655	2
0	4402	1378.820323943088	1
0	4411	1381.636021369283	2
0	4418	1386.837477226476	3
0	4419	1389.397316293868	2
0	4425	1389.959485207757	3
0	4427	1390.42591844333	2
0	4432	1390.464103877524	1
0	4437	1391.686279286169	0
0	4457	1397.563154250519	1
0	4459	1400.961023081719	0
0	4466	1401.492487613639	1
0	4468	1402.455884131972	2
0	4470	1403.090808545713	3
0	4471	1405.650099042246	2
0	4479	1407.290758490691	3
0	4482	1408.996537055757	4
0	4485	1413.063217375953	5
0	4486	1415.79623557323	4
0	4491	1416.454927189171	3
0	4496	1416.810491657194	2
0	4502	1417.876146776708	3
0	4509	1420.545666679932	2
0	4516	1422.610325604537	3
0	4517	1423.363564217329	2
0	4522	1425.455771218392	1
0	4527	1426.350801323379	0
0	4543	1429.060236092657	1
0	4546	1430.452138462549	2
0	4555	1433.520160431412	3
0	4556	1433.619594184742	2
0	4564	1435.165566902439	1
0	4571	1435.878982557821	0
0	4587	1436.757098755589	1
0	4588	1436.887830497263	0
0	4608	1439.844925710713	1
0	4609	1439.859886884944	0
0	4616	1439.990234286494	1
0	4621	1442.57043231484	0
0	4639	1445.141087921109	1
0	4650	1449.441415935853	2
0	4656	1452.074261577693	3
0	4658	1454.126864393134	4
0	4660	1454.434723224062	5
0	4662	1459.590983331348	6
0	4663	1459.690965499829	5
0	4671	1462.930507070125	4
0	4676	1462.96689934262	3
0	4684	1464.0987114545	2
0	4691	1464.914043445562	3
0	4692	1466.277421586167	2
0	4699	1466.532857527349	1
0	4706	1467.295334987266	0
0	4715	1469.320628483623	1
0	4719	1472.036402751893	0
0	4730	1473.665793048832	1
0	4736	1474.877690477477	0
0	4785	1483.752783071912	1
0	4788	1486.92573269919	0
0	4794	1487.61720900608	1
0	4797	1488.989867801605	0
0	4829	1505.971148743009	1
0	4830	1506.341976544755	0
0	4842	1510.360861397158	1
0	4843	1511.177328971047	0
0	4855	1513.597647135006	1
0	4857	1514.61010313686	0
0	4884	1516.958267582581	1
0	4887	1518.060365440131	0
0	4905	1522.024943132756	1
0	4906	1522.093069960188	0
0	4925	1527.927432840675	1
0	4927	1527.980332792025	2
0	4933	1532.631515422598	1
0	4940	1533.027460383965	2
0	4941	1533.073567310226	1
0	4946	1533.34844300326	0
0	4961	1536.765714254976	1
0	4965	1537.532807511626	2
0	4968	1539.311488536381	1
0	4976	1540.761190467054	0
0	5021	1546.521623073775	1
0	5022	1547.780395012722	0
0	5034	1555.625808012595	1
0	5036	1557.894857432306	2
0	5037	1559.117255854433	1
0	5043	1561.827914733545	0
0	5052	1563.114764661216	1
0	5053	1563.156693279714	0
0	5078	1571.823248592137	1
0	5080	1572.793916594086	2
0	5081	1574.398133128903	1
0	5087	1574.531991865302	2
0	5096	1581.76011538525	3
0	5097	1583.584769965463	2
0	5105	1586.018990062872	1
0	5115	1587.893661015624	0
0	5122	1592.82342025343	1
0	5124	1596.537736640387	2
0	5126	1597.267315243874	3
0	5127	1598.159925430034	2
0	5134	1599.35839336506	1
0	5142	1600.608648700553	0
0	5160	1603.942718488374	1
0	5163	1604.633640503735	2
0	5165	1604.874255286855	3
0	5166	1605.539894493466	2
0	5171	1607.405690520166	1
0	5179	1611.448210795468	0
0	5185	1611.887867566621	1
0	5187	1612.401722209615	2
0	5188	1612.448290918668	1
0	5193	1612.780141046791	0
0	5209	1622.663895748477	1
0	5211	1623.202647882439	2
0	5216	1631.558105684173	1
0	5221	1632.188205268015	0
0	5229	1633.948710950284	1
0	5230	1635.50667161422	0
0	5242	1637.616735554866	1
0	5246	1640.780048403891	2
0	5248	1641.664716973875	3
0	5249	1643.117352229971	2
0	5256	1644.134015253057	1
0	5263	1646.175421952971	0
0	5269	1646.55676932112	1
0	5270	1647.258346338054	0
0	5302	1658.544438130119	1
0	5304	1658.716334896562	2
0	5306	1660.740664520867	3
0	5308	1661.363345807249	4
0	5309	1661.857172471492	3
0	5315	1662.517336977512	4
0	5319	1663.747761071867	5
0	5321	1665.076745066999	4
0	5327	1665.247173478714	5
0	5329	1666.651047505728	4
0	5343	1670.47585967869	5
0	5344	1671.276734950147	4
0	5349	1672.338432993687	3
0	5354	1672.575396280935	2
0	5359	1672.824279468071	1
0	5365	1673.531619832869	2
0	5366	1674.541151878068	1
0	5372	1675.784906215544	2
0	5373	1675.958517842121	1
0	5377	1677.170376662945	2
0	5379	1680.161410324492	3
0	5381	1680.371322669148	4
0	5385	1683.142848651376	5
0	5389	1684.679910516554	4
0	5397	1688.126124816696	3
0	5404	1691.172646325821	2
0	5415	1696.316829605491	1
0	5420	1696.703691535895	0
0	5444	1701.59569024445	1
0	5446	1703.692058664337	2
0	5447	1703.715746615542	1
0	5452	1704.162653690043	0
0	5473	1714.701999651347	1
0	5475	1715.280411460097	2
0	5476	1719.010124978542	1
0	5481	1719.48630841077	0
0	5487	1719.517732636467	1
0	5492	1721.494997416043	2
0	5494	1721.734777223243	3
0	5495	1722.092471883545	2
0	5501	1722.134402009594	3
0	5504	1724.015541397392	2
0	5510	1724.253590958849	3
0	5512	1724.421094360935	4
0	5514	1725.204120764539	3
0	5521	1727.826176128656	4
0	5522	1728.050809944731	3
0	5529	1731.900793834673	4
0	5533	1734.973210183035	5
0	5535	1736.90617230485	6
0	5536	1737.844044045354	5
0	5541	1738.104540678268	4
0	5548	1744.054742095308	3
0	5556	1745.093520519732	4
0	5562	1747.583814303047	5
0	5563	1747.736977534439	4
0	5572	1750.824099352806	5
0	5573	1752.78799953584	4
0	5579	1755.18039605256	3
0	5585	1757.156341746255	2
0	5590	1759.682746801861	1
0	5597	1761.075009308465	0
0	5618	1765.292131454854	1
0	5620	1765.427655510564	2
0	5621	1765.591620546938	1
0	5629	1766.782919576423	0
0	5655	1770.712060219891	1
0	5657	1771.482101678809	0
0	5679	1776.173109262819	1
0	5680	1776.187564536235	0
0	5686	1777.635693601075	1
0	5691	1778.809526651752	0
0	5712	1783.754590206154	1
0	5716	1786.290869422367	2
0	5720	1789.344301712836	3
0	5721	1789.492285743636	2
0	5726	1789.529639662621	1
0	5735	1790.789078569996	2
0	5739	1792.058125179953	3
0	5740	1793.085688309709	2
0	5746	1794.57028912089	1
0	5752	1795.341771155353	0
0	5777	1799.121325072992	1
0	5781	1800.01555776713	2
0	5783	1800.167565995368	3
0	5786	1802.171898079693	4
0	5790	1803.490796210245	5
0	5793	1807.440341253123	4
0	5800	1808.043473742994	5
0	5805	1811.95923504277	4
0	5815	1813.720078383364	3
0	5822	1816.035597847047	4
0	5829	1820.229703396719	5
0	5830	1821.56850076648	4
0	5837	1823.727460923022	5
0	5839	1824.179235811082	6
0	5840	1824.5895420364	5
0	5846	1826.581067679973	4
0	5851	1826.644220220708	3
0	5856	1826.903896948512	2
0	5864	1829.349024695123	1
0	5870	1829.615045254397	2
0	5872	1830.346159504393	1
0	5879	1832.377063902192	0
0	5897	1839.030997491891	1
0	5898	1843.532444380535	0
0	5936	1858.261793111077	1
0	5941	1861.535489947095	0
0	5951	1862.083867833444	1
0	5954	1865.880997345007	0
0	5961	1866.805029141401	1
0	5963	1867.651782600592	0
0	5978	1874.187298931902	1
0	5980	1874.548284077957	2
0	5981	1875.463154493542	1
0	5986	1875.857871634418	0
0	6003	1878.319977264398	1
0	6006	1878.737406724866	0
0	6021	1880.300810003935	1
0	6023	1881.295886030363	2
0	6025	1882.682254852455	3
0	6031	1888.537907614516	4
0	6034	1889.4266072459	3
0	6044	1893.326203676177	4
0	6046	1895.320460301492	5
0	6050	1897.469949739595	6
0	6051	1899.533088435031	5
0	6060	1900.919191670402	4
0	6065	1901.597953314753	3
0	6070	1901.904509528377	2
0	6079	1902.548007057941	3
0	6080	1902.836495138193	2
0	6088	1904.868634089912	3
0	6090	1904.900273683528	4
0	6092	1905.732836499079	3
0	6097	1905.76887373708	2
0	6103	1906.147003231552	3
0	6104	1906.713639484757	2
0	6110	1907.044935225798	3
0	6114	1910.880136702093	2
0	6121	1912.398935404165	1
0	6128	1913.723344014571	2
0	6130	1914.016922395628	3
0	6131	1916.190528014874	2
0	6139	1917.247728018839	1
0	6150	1921.450388206872	2
0	6151	1922.072556418374	1
0	6157	1922.183187293193	2
0	6161	1923.161567086865	3
0	6164	1924.241182122798	2
0	6169	1924.789579439435	1
0	6176	1925.933413431368	2
0	6177	1926.546738381922	1
0	6185	1933.358856342217	2
0	6186	1935.365566819799	1
0	6194	1937.621271847597	0
0	6207	1938.143143921193	1
0	6209	1938.280404039559	2
0	6210	1938.281779468718	1
0	6218	1940.588253092262	2
0	6221	1943.297607818823	1
0	6226	1943.739886860838	0
0	6244	1950.881779666679	1
0	6245	1952.52226116942	0
0	6251	1954.33391353251	1
0	6257	1957.32060437401	2
0	6259	1957.7006482528	3
0	6261	1959.319705594899	2
0	6268	1961.089929749599	3
0	6269	1961.221583503129	2
0	6276	1964.004423258694	3
0	6278	1964.422055416599	4
0	6279	1965.021762345486	3
0	6286	1966.306574057086	2
0	6291	1966.561035449578	1
0	6297	1968.259131135151	2
0	6299	1970.062666511761	3
0	6305	1971.535236276364	4
0	6306	1972.755025450257	3
0	6315	1974.463415453583	4
0	6317	1974.544113814955	5
0	6320	1975.990601808657	4
0	6329	1978.818212912724	5
0	6331	1981.180433037251	6
0	6332	1982.965703513143	5
0	6337	1983.354345299034	4
0	6343	1985.418959429847	3
0	6349	1985.936315417252	4
0	6351	1986.673700219835	3
0	6357	1986.871553747393	4
0	6359	1988.198840814936	3
0	6368	1991.317055206259	4
0	6371	1993.413078444137	3
0	6379	1996.013015127862	4
0	6380	1996.70342856437	3
0	6387	1997.925040363563	2
0	6392	2002.942700420122	1
0	6397	2003.275811404607	0
0	6410	2004.829873512062	1
0	6411	2005.285587549453	0
0	6431	2011.321667661093	1
0	6433	2012.809641641718	0
0	6459	2016.228355060687	1
0	6463	2017.262886874729	0
0	6479	2024.698309529792	1
0	6481	2025.807581003489	2
0	6482	2026.190397574484	1
0	6491	2027.597992307665	0
0	6503	2029.332259020777	1
0	6507	2031.417439304347	0
0	6518	2033.057565827152	1
0	6520	2034.611848400198	2
0	6524	2037.627896994854	1
0	6531	2042.296243663701	2
0	6532	2042.723790925808	1
0	6540	2046.706073508849	2
0	6541	2048.771801248377	1
0	6546	2049.019044837257	0
0	6559	2054.805773907843	1
0	6562	2055.033291744765	0
0	6569	2055.849527001236	1
0	6571	2056.85854245533	2
0	6575	2057.979494052917	3
0	6576	2058.156438954096	2
0	6581	2058.505358656881	1
0	6589	2059.811873399901	2
0	6592	2063.417715824769	1
0	6599	2065.361317145618	2
0	6600	2066.352881458641	1
0	6607	2067.091949167825	2
0	6611	2069.49293357946	3
0	6615	2070.37780420688	4
0	6616	2072.054044231791	3
0	6630	2077.003786061555	4
0	6633	2078.184977730457	3
0	6645	2083.526040465861	2
0	6651	2084.531374286539	1
0	6660	2089.750873535296	2
0	6662	2091.762450779426	3
0	6664	2091.807902249714	4
0	6667	2093.055973732018	3
0	6673	2093.205461560176	4
0	6676	2094.894191893932	5
0	6678	2095.299706707927	6
0	6680	2095.89081219143	7
0	6681	2095.90996400074	6
0	6687	2096.972735388882	5
0	6694	2097.678012225456	6
0	6695	2097.695281744538	5
0	6701	2097.729193284504	6
0	6708	2102.063635997043	7
0	6710	2102.241228594251	8
0	6714	2107.610097580302	7
0	6721	2108.525788329163	8
0	6723	2109.874415436354	9
0	6724	2110.362175991301	8
0	6729	2111.015151982398	7
0	6736	2112.99114338334	8
0	6738	2116.60366334034	9
0	6739	2117.729785307825	8
0	6748	2118.305962323244	9
0	6751	2119.37562976439	10
0	6754	2120.246730960567	9
0	6765	2123.893213389857	10
0	6767	2125.032844474422	11
0	6769	2125.414871444345	12
0	6771	2127.375284838496	13
0	6772	2127.55947627881	12
0	6778	2128.233300615617	13
0	6779	2129.792988226053	12
0	6784	2129.837015306903	11
0	6790	2131.789022176846	10
0	6795	2132.601580086403	9
0	6801	2133.52959910654	10
0	6803	2134.761335813508	11
0	6805	2135.00094708925	12
0	6807	2138.105306792158	13
0	6808	2138.510146091658	12
0	6814	2138.552194470562	13
0	6816	2139.891344094382	14
0	6818	2140.573855897112	15
0	6820	2141.807164426417	14
0	6826	2141.913738442916	15
0	6828	2142.79673831615	16
0	6829	2144.219665722071	15
0	6834	2150.352254274699	14
0	6843	2154.755250164794	13
0	6848	2155.933843779691	12
0	6853	2156.261726996894	11
0	6857	2156.45975022222	12
0	6863	2158.528632567429	11
0	6869	2159.053887539208	12
0	6870	2159.636868667634	11
0	6875	2161.303227783017	10
0	6879	2161.399896501693	11
0	6882	2163.861669759223	10
0	6886	2165.957993346956	11
0	6892	2166.942451865434	12
0	6894	2168.001113562626	11
0	6899	2168.199135553685	10
0	6903	2168.560089610617	11
0	6905	2169.692996070625	12
0	6913	2174.979609224716	13
0	6914	2175.041988474249	12
0	6920	2175.425753377685	13
0	6922	2176.478868819382	12
0	6927	2176.844507051281	11
0	6934	2177.982576051428	12
0	6935	2178.213589644031	11
0	6942	2178.44872005775	12
0	6944	2180.095973874651	13
0	6945	2182.660356679695	12
0	6953	2184.103488870543	11
0	6959	2184.899636720803	12
0	6962	2186.552738080269	11
0	6972	2190.69554262223	12
0	6977	2194.69655814871	13
0	6978	2194.82471719386	12
0	6983	2195.150186948128	11
0	6989	2195.215007883479	12
0	6991	2196.931113337582	11
0	6997	2197.946249581419	10
0	7002	2199.664493257085	9
0	7008	2200.867161154384	10
0	7014	2202.950300278834	11
0	7020	2205.466216362523	10
0	7025	2205.66805194552	9
0	7031	2206.754904851461	10
0	7033	2208.437652048	11
0	7034	2208.675575580095	10
0	7040	2209.408836079712	11
0	7043	2210.219778441732	10
0	7049	2210.600629390272	11
0	7053	2213.127255574847	12
0	7055	2213.315149636958	13
0	7057	2213.645657763081	14
0	7058	2214.048820093108	13
0	7065	2220.321008146586	12
0	7070	2221.204126449319	11
0	7077	2224.648205669543	10
0	7081	2224.844369362755	11
0	7083	2225.392389064711	12
0	7086	2226.36998662044	11
0	7092	2227.115627628061	10
0	7098	2228.801629558326	11
0	7099	2230.706743502448	10
0	7105	2231.300219815895	11
0	7106	2232.645103832503	10
0	7112	2234.025523540341	9
0	7118	2235.062018860408	10
0	7119	2235.533716285556	9
0	7126	2237.879398961081	10
0	7128	2238.659999577951	11
0	7130	2240.97418068481	12
0	7131	2242.164362542561	11
0	7136	2242.235188640039	10
0	7143	2243.407831943299	9
0	7147	2245.18294909656	10
0	7149	2245.609226602197	11
0	7153	2247.062792995824	12
0	7156	2247.561962447845	11
0	7160	2249.36462443668	12
0	7169	2251.210959193873	13
0	7170	2251.281672256486	12
0	7177	2253.841605941066	13
0	7178	2256.035027355639	12
0	7183	2256.56411017767	11
0	7188	2259.369154313854	10
0	7193	2260.936940532176	9
0	7204	2267.440321484551	10
0	7207	2268.000914042701	9
0	7214	2268.544242332192	8
0	7221	2269.984675326986	7
0	7229	2271.835059057871	8
0	7230	2272.220780808671	7
0	7238	2277.500696699147	8
0	7242	2281.941842003835	9
0	7243	2283.560613236826	8
0	7249	2284.304654317635	9
0	7252	2285.673059499569	10
0	7253	2289.14819813637	9
0	7261	2292.666396993706	8
0	7267	2294.253488616494	7
0	7273	2294.462429213505	8
0	7278	2298.10828735941	9
0	7279	2299.104645447693	8
0	7285	2299.745081277423	9
0	7286	2300.596459528212	8
0	7291	2300.611599168204	7
0	7302	2302.49082542757	8
0	7304	2304.070304535152	9
0	7307	2304.479914113995	8
0	7313	2304.825702330019	9
0	7315	2306.680384435722	8
0	7322	2307.158257751504	7
0	7328	2307.701821603475	8
0	7333	2309.664073419733	9
0	7334	2310.650929575962	8
0	7339	2311.882169696896	7
0	7345	2312.362084149426	6
0	7351	2313.19251438436	7
0	7353	2315.786998888306	6
0	7359	2317.315505867269	5
0	7364	2317.553789410109	4
0	7371	2320.861194363148	5
0	7373	2322.438286510562	4
0	7384	2326.229916954623	5
0	7385	2326.763193925993	4
0	7391	2328.225170329177	5
0	7392	2328.364622500918	4
0	7398	2330.75836358686	3
0	7403	2331.438322422464	2
0	7410	2332.496521629978	3
0	7412	2332.719555504013	4
0	7413	2333.007609918747	3
0	7418	2333.225772716939	2
0	7422	2333.729885457256	3
0	7425	2337.155497820176	2
0	7431	2338.149427233409	1
0	7436	2338.152487594074	0
0	7449	2341.307235326596	1
0	7451	2343.144942301065	2
0	7453	2345.412308859466	3
0	7454	2346.727786449203	2
0	7464	2349.110029759633	3
0	7467	2351.582099554926	4
0	7469	2353.003734743476	3
0	7475	2353.151180140444	4
0	7482	2354.850996514704	3
0	7489	2355.650353840248	4
0	7492	2358.781162145658	5
0	7494	2358.862042093991	6
0	7497	2359.320154327987	5
0	7506	2365.794114711344	4
0	7515	2368.699398138344	5
0	7516	2368.930183156363	4
0	7525	2371.238947765761	5
0	7527	2372.937503919479	4
0	7533	2373.734755344167	3
0	7539	2374.616110762808	2
0	7545	2377.844532286756	1
0	7550	2379.298866203981	0
0	7565	2382.248143185063	1
0	7567	2383.291443410066	2
0	7568	2384.583437198966	1
0	7574	2386.388966097655	0
0	7612	2402.136117059747	1
0	7614	2402.665037127455	2
0	7615	2402.905671016731	1
0	7621	2403.130677240421	2
0	7624	2408.207028658285	3
0	7625	2409.210908617818	2
0	7631	2412.098295157073	1
0	7637	2413.011734633888	0
0	7650	2416.39881721072	1
0	7651	2416.432023540557	0
0	7709	2432.723523230504	1
0	7710	2433.633066369931	0
0	7719	2436.836889608687	1
0	7721	2439.194705993454	0
0	7745	2444.646076380587	1
0	7746	2444.665076056015	0
0	7786	2454.233809569059	1
0	7790	2455.808353234956	2
0	7793	2458.299543882825	1
0	7800	2459.881186322024	2
0	7802	2461.273981945361	3
0	7804	2461.951833772127	4
0	7807	2463.927798594782	3
0	7812	2464.477645194326	2
0	7817	2465.942537672034	1
0	7826	2468.32287053216	2
0	7830	2470.2435659517	1
0	7838	2471.418538985784	0
0	7862	2478.514822196943	1
0	7863	2479.932441971873	0
0	7888	2486.206066826582	1
0	7891	2487.60334757758	0
0	7901	2494.49748580262	1
0	7905	2497.541928183146	2
0	7907	2499.971621511384	3
0	7911	2501.388869464509	2
0	7919	2504.984540191073	1
0	7927	2507.889720371062	0
0	7936	2510.686990272712	1
0	7937	2510.92982057552	0
0	7952	2514.988944068394	1
0	7956	2516.993717084629	0
0	7976	2521.887774089325	1
0	7979	2522.604024328699	0
0	7985	2523.256708226764	1
0	7987	2523.392593415542	2
0	7989	2524.240702655539	3
0	7991	2524.916170236174	4
0	7992	2525.040251868724	3
0	7999	2527.137763030602	2
0	8006	2527.400055659266	1
0	8011	2528.088672494999	0
0	8038	2538.250871097617	1
0	8043	2540.708818213198	0
0	8065	2547.127634133284	1
0	8066	2549.238222146876	0
0	8073	2550.617131313028	1
0	8077	2551.841895205482	2
0	8078	2552.297629721896	1
0	8083	2552.442335446887	0
0	8098	2557.807588864078	1
0	8104	2561.858331773166	0
0	8122	2568.574204814989	1
0	8124	2568.610028946876	2
0	8126	2569.881984453114	3
0	8129	2570.816557764662	2
0	8135	2572.307030711179	1
0	8143	2576.129873562839	2
0	8146	2579.455686930522	1
0	8152	2580.011830921534	2
0	8154	2580.729392579016	3
0	8155	2581.472397262013	2
0	8162	2582.252982841999	1
0	8168	2582.949220558555	2
0	8175	2586.632487381488	3
0	8178	2587.104218844236	4
0	8180	2589.08320045011	3
0	8185	2590.05906521572	2
0	8190	2590.165797068729	1
0	8195	2591.978073361404	0
0	8207	2593.595240114188	1
0	8209	2593.596748805034	2
0	8216	2597.273311691746	1
0	8221	2597.535272220846	0
0	8228	2598.289985150895	1
0	8229	2600.469620545694	0
0	8247	2603.206145113492	1
0	8249	2603.31505340119	0
0	8260	2606.695566508322	1
0	8262	2607.406202814109	2
0	8264	2607.783782696262	1
0	8272	2608.148711932602	2
0	8279	2614.229979917887	1
0	8287	2623.032432964302	0
0	8316	2628.022823795685	1
0	8320	2631.638266263514	2
0	8321	2631.842736694267	1
0	8327	2632.760936058048	0
0	8339	2633.696293757463	1
0	8343	2634.379500241499	2
0	8344	2635.976477355947	1
0	8353	2638.716849159934	2
0	8356	2639.639826974217	3
0	8358	2640.118524563733	4
0	8361	2645.133141563736	5
0	8362	2646.169232411806	4
0	8367	2646.691060749508	3
0	8373	2648.04866797866	4
0	8375	2648.590658302685	5
0	8376	2648.623982698708	4
0	8382	2649.924148921845	3
0	8387	2650.486421706701	2
0	8392	2650.638633718928	1
0	8398	2651.168096659641	2
0	8406	2659.016577290936	3
0	8407	2659.156844759005	2
0	8414	2659.507150956744	3
0	8415	2659.926494503344	2
0	8423	2665.836751278319	1
0	8428	2666.301877343479	0
0	8443	2669.535638563052	1
0	8444	2672.344560889807	0
0	8469	2678.963932117537	1
0	8473	2681.06336324751	2
0	8475	2682.248188796105	3
0	8476	2685.169698163412	2
0	8482	2686.553607316142	1
0	8488	2688.231760509313	2
0	8489	2688.309308732071	1
0	8494	2688.568696440371	0
0	8500	2689.52461430889	1
0	8501	2689.600252352236	0
0	8507	2690.514248045782	1
0	8510	2691.630271192108	0
0	8525	2695.056826145399	1
0	8527	2696.336997817242	0
0	8547	2700.135900663262	1
0	8549	2701.017983651668	2
0	8554	2702.973697653396	1
0	8559	2704.44583473276	0
0	8572	2709.087760471903	1
0	8574	2709.921450354254	2
0	8578	2711.312377023967	1
0	8585	2711.831273185327	2
0	8588	2714.355720794764	1
0	8594	2714.770307426624	2
0	8597	2715.006913976148	3
0	8598	2715.383686526992	2
0	8603	2716.420030016386	1
0	8609	2719.493426322865	0
0	8620	2720.615388624227	1
0	8622	2721.489926850249	2
0	8626	2723.417491556446	3
0	8627	2724.052469321772	2
0	8633	2724.743777959971	1
0	8641	2726.344536856697	0
0	8653	2727.620939785871	1
0	8655	2728.86567983334	2
0	8661	2732.847898180925	1
0	8669	2735.120781823373	0
0	8693	2742.523002901033	1
0	8694	2742.545505539446	0
0	8706	2748.532485502645	1
0	8712	2752.863027919688	0
0	8727	2756.887214457102	1
0	8729	2757.641584289326	2
0	8732	2762.132507243107	1
0	8740	2764.260211026781	0
0	8750	2767.29108339327	1
0	8754	2768.045235572966	2
0	8757	2770.044464770539	1
0	8763	2771.145384356607	0
0	8772	2775.003080864121	1
0	8774	2776.428831961125	2
0	8775	2779.285396818131	1
0	8786	2781.733764634556	0
0	8793	2783.604490815501	1
0	8794	2783.753464259793	0
0	8826	2789.810841779348	1
0	8827	2790.147072022306	0
0	8837	2790.632001886426	1
0	8841	2792.206031470436	2
0	8842	2795.46754284593	1
0	8848	2796.152498603503	0
0	8856	2797.232748192354	1
0	8859	2801.803200335461	0
0	8871	2802.0278017152	1
0	8872	2802.349559941229	0
0	8890	2805.807812125504	1
0	8897	2811.890253758355	0
0	8904	2812.106616146406	1
0	8909	2817.213220568047	2
0	8910	2819.108888297218	1
0	8919	2824.630505044611	2
0	8921	2825.239666991163	3
0	8922	2825.933112108066	2
0	8929	2826.292067957294	3
0	8932	2830.552702517934	2
0	8937	2832.094334566322	1
0	8942	2832.287152257457	0
0	8958	2835.747903029675	1
0	8959	2840.160260010208	0
0	8971	2842.105503669582	1
0	8972	2842.955710260463	0
0	8979	2843.691479439831	1
0	8982	2844.044801303119	0
0	9001	2850.489727822286	1
0	9002	2850.967808281132	0
0	9008	2851.538528851102	1
0	9010	2851.951367433518	2
0	9012	2853.298990541523	1
0	9017	2853.477900886646	0
0	9024	2853.66384739898	1
0	9026	2853.813518997328	2
0	9027	2853.850567275137	1
0	9038	2856.985337793481	0
0	9056	2860.723887198975	1
0	9058	2864.096598070689	2
0	9060	2865.151566312543	3
0	9068	2866.568837653561	4
0	9069	2867.090683733052	3
0	9076	2867.681137732932	4
0	9077	2868.14080595022	3
0	9083	2868.421307474741	2
0	9092	2868.915414592933	3
0	9093	2870.149658876883	2
0	9098	2870.362025026614	1
0	9104	2870.678103174479	2
0	9112	2874.958556106419	3
0	9116	2875.87600355039	4
0	9117	2877.091016263476	3
0	9127	2882.972349954641	2
0	9132	2883.340377742044	1
0	9138	2885.142447121408	0
0	9144	2885.678399130267	1
0	9148	2885.968836026725	2
0	9151	2887.199835007019	3
0	9156	2890.652648600321	4
0	9158	2892.177672051647	3
0	9163	2892.779059188478	2
0	9171	2894.433470075872	3
0	9174	2895.193057791737	2
0	9180	2895.342081476201	3
0	9182	2895.420698499346	4
0	9184	2895.539708047146	5
0	9185	2895.965229903764	4
0	9191	2896.116099372421	5
0	9193	2896.464778213949	6
0	9196	2898.671884638981	5
0	9201	2900.382474283347	4
0	9206	2901.572406327515	3
0	9211	2902.191300654874	2
0	9216	2904.540707061509	1
0	9222	2905.473340930887	2
0	9223	2905.80026790906	1
0	9227	2905.869716181247	2
0	9231	2907.342009761066	3
0	9232	2907.689060024337	2
0	9237	2908.756957492005	1
0	9245	2913.45337176818	0
0	9251	2913.847705656308	1
0	9253	2915.090807680575	0
0	9268	2918.40798739447	1
0	9269	2918.76191330183	0
0	9280	2919.679037395148	1
0	9283	2920.782688557451	2
0	9284	2921.381097175818	1
0	9291	2922.446459167918	0
0	9297	2923.563200891236	1
0	9300	2923.985486613502	2
0	9303	2926.214011110116	1
0	9312	2928.341556731047	0
0	9319	2929.087409380285	1
0	9320	2929.160466148454	0
0	9327	2929.507796075371	1
0	9329	2930.232350005319	2
0	9330	2930.938889230242	1
0	9336	2933.322254360394	0
0	9351	2938.445558452569	1
0	9352	2938.496210142645	0
0	9369	2940.458482367002	1
0	9373	2947.353174172837	2
0	9375	2952.87396269108	3
0	9376	2953.843925738965	2
0	9386	2958.723124818078	1
0	9395	2961.255786977664	2
0	9397	2961.732311268601	3
0	9399	2962.674521553864	4
0	9401	2969.242040677416	5
0	9402	2970.827704983955	4
0	9409	2972.55097616844	5
0	9410	2974.804534550195	4
0	9415	2975.220262261853	3
0	9423	2975.599718067419	4
0	9425	2976.055874403002	5
0	9428	2978.531208165071	6
0	9429	2978.904479868187	5
0	9436	2979.96895788407	6
0	9439	2981.559912435569	7
0	9440	2983.689148701595	6
0	9445	2984.381439758401	5
0	9451	2986.448759230793	6
0	9456	2991.729519095342	7
0	9460	2993.371290167615	8
0	9461	2997.062478011713	7
0	9468	2998.840057097407	6
0	9473	2999.441631581562	5
0	9478	3000.2685367131	4
0	9483	3000.765019421729	3
0	9488	3004.062096509863	2
0	9494	3006.270088067296	3
0	9496	3012.765678780345	2
0	9501	3016.60254515541	1
0	9506	3020.862442629394	0
0	9554	3037.052441500295	1
0	9555	3037.496809345154	0
0	9567	3038.526743638077	1
0	9569	3038.648598739378	2
0	9570	3038.775591609989	1
0	9576	3039.054832262878	2
0	9577	3042.971672857964	1
0	9582	3043.416700278264	0
0	9589	3043.855914922331	1
0	9590	3044.060177978587	0
0	9597	3047.117439788762	1
0	9598	3047.122071823428	0
0	9604	3049.1657405829	1
0	9606	3051.285425237407	0
0	9620	3053.855805850028	1
0	9623	3055.506061268604	0
0	9633	3059.241794943843	1
0	9639	3062.031016713757	0
0	9645	3062.268421672952	1
0	9648	3065.260511229933	0
0	9659	3067.499593248539	1
0	9661	3069.02001502691	2
0	9662	3070.427844447542	1
0	9667	3070.456066208073	0
0	9689	3075.513396494988	1
0	9693	3078.934099717229	2
0	9698	3080.687014706637	1
0	9704	3080.797379215429	2
0	9707	3082.596382176479	1
0	9713	3083.006336000246	2
0	9714	3084.533634694035	1
0	9719	3085.285570353025	0
0	9725	3085.811378091295	1
0	9727	3088.345063929619	0
0	9768	3096.971154703494	1
0	9772	3102.474180455335	0
0	9778	3103.79725939846	1
0	9779	3104.610794995143	0
0	9789	3105.01691132041	1
0	9791	3105.677949131761	2
0	9797	3111.218449773058	3
0	9801	3115.856070854691	2
0	9809	3119.350731575837	1
0	9815	3119.941981561655	2
0	9819	3120.805736102152	3
0	9822	3123.275196254071	2
0	9828	3123.895421599695	3
0	9832	3124.25605420854	2
0	9842	3127.999040653075	1
0	9848	3132.388150371599	0
0	9865	3137.981774104171	1
0	9866	3138.683232913732	0
0	9878	3142.881599743078	1
0	9879	3144.824293642777	0
0	9885	3144.837090944869	1
0	9887	3145.997522181053	2
0	9889	3146.21525963392	3
0	9892	3146.757020425333	4
0	9894	3149.712319630721	5
0	9899	3151.351545820914	4
0	9909	3152.276321950255	5
0	9914	3155.291226432275	6
0	9915	3155.672377106528	5
0	9921	3158.656391472634	4
0	9926	3159.035984945801	3
0	9931	3161.027726722894	2
0	9937	3161.334626096374	3
0	9940	3163.19431234565	2
0	9945	3163.271108950822	1
0	9951	3163.777687475245	2
0	9952	3164.983833785014	1
0	9956	3165.080150110011	2
0	9967	3172.496319962759	3
0	9971	3175.228503601185	4
0	9972	3175.541198577051	3
0	9980	3177.177272809962	4
0	9982	3177.245711017136	5
0	9986	3181.523408625576	4
0	9992	3183.947232191359	3
0	9997	3186.268641143852	2
0	10002	3186.31501908095	1
0	10007	3186.698996964446	0
0	10013	3186.770020868199	1
0	10015	3186.855284750195	2
0	10017	3187.401113844303	3
0	10023	3190.187486931591	4
0	10025	3190.525531105447	5
0	10028	3191.660404894864	4
0	10035	3193.916314929122	5
0	10038	3196.457845897007	6
0	10039	3197.869336905636	5
0	10045	3199.674669473877	4
0	10051	3200.455596644827	3
0	10059	3201.694471240643	2
0	10064	3202.975342470573	1
0	10069	3203.311199105276	0
0	10086	3204.767834027457	1
0	10089	3205.649674951531	0
0	10104	3210.096847093985	1
0	10105	3210.173219868848	0
0	10113	3210.814083619507	1
0	10118	3211.991731814834	0
0	10155	3228.901516585398	1
0	10157	3228.922398851486	2
0	10160	3230.013537764043	1
0	10166	3231.445411548518	0
0	10205	3242.320436033032	1
0	10207	3243.028064361337	2
0	10209	3243.476179691424	3
0	10215	3246.46721318576	4
0	10217	3247.559923088336	5
0	10219	3247.712310596289	6
0	10220	3250.674586858666	5
0	10226	3250.986326372084	6
0	10231	3252.468039700721	5
0	10239	3255.920573137534	6
0	10243	3259.107055180522	7
0	10247	3263.898301926866	8
0	10248	3264.155700737444	7
0	10255	3265.394481899757	8
0	10259	3266.958330888507	9
0	10262	3267.99748758968	8
0	10269	3269.390911398672	9
0	10270	3270.937886175892	8
0	10278	3274.818956623065	9
0	10279	3275.612590468487	8
0	10284	3277.013783198224	7
0	10291	3278.95614619733	8
0	10294	3281.173621358415	9
0	10295	3282.162953975836	8
0	10303	3283.963000052207	7
0	10311	3285.880299636802	8
0	10312	3287.197057657338	7
0	10320	3289.137475583925	6
0	10326	3289.348942670135	5
0	10331	3290.183766731057	4
0	10340	3292.349067860366	3
0	10348	3296.598884111231	4
0	10349	3297.135628597921	3
0	10354	3298.611631473402	2
0	10359	3298.6515336988	1
0	10372	3300.166582191658	2
0	10373	3300.704403225295	1
0	10379	3301.26440370838	2
0	10383	3302.511249406618	3
0	10384	3302.727571196725	2
0	10392	3309.881908790943	1
0	10397	3309.917983638051	0
0	10408	3318.42239213952	1
0	10410	3325.850210911501	2
0	10416	3330.647874445528	3
0	10420	3330.915515932548	4
0	10421	3331.612771244526	3
0	10427	3331.812159313282	4
0	10429	3332.130249260576	3
0	10435	3332.76253394044	4
0	10437	3333.682925789591	3
0	10444	3334.126972036984	2
0	10452	3335.655767845234	3
0	10454	3336.138188628876	4
0	10456	3339.828993581834	5
0	10457	3340.600434962937	4
0	10463	3340.803552409516	5
0	10464	3343.420307373135	4
0	10473	3349.484905250357	5
0	10475	3349.839975022374	6
0	10477	3350.084363811476	7
0	10478	3350.392769226483	6
0	10483	3350.838140503987	5
0	10488	3351.844159129382	4
0	10494	3354.594808266168	5
0	10495	3360.013119303312	4
0	10502	3363.24461088325	3
0	10508	3363.594229306723	4
0	10509	3363.811397835612	3
0	10516	3364.924667248476	2
0	10522	3365.808320409616	3
0	10523	3365.93670149118	2
0	10529	3367.86707956735	1
0	10535	3368.300384492373	2
0	10548	3370.536979216514	1
0	10553	3370.549669655142	0
0	10574	3377.320190224837	1
0	10575	3378.110130252514	0
0	10584	3378.846649108541	1
0	10588	3380.510617133178	0
0	10595	3384.630524802698	1
0	10596	3384.765756633635	0
0	10611	3391.056630749425	1
0	10613	3393.771123639145	2
0	10614	3396.685236719146	1
0	10620	3398.039692378873	0
0	10637	3400.282928379971	1
0	10640	3401.77803775701	0
0	10672	3411.712302130589	1
0	10675	3413.409716644986	0
0	10699	3418.279923182715	1
0	10700	3418.648819689161	0
0	10709	3419.278309934017	1
0	10712	3419.85169656815	0
0	10726	3423.084145310321	1
0	10727	3424.806282126547	0
0	10773	3434.997918445017	1
0	10774	3436.124961888727	0
0	10826	3456.623331478573	1
0	10829	3457.582353433093	0
0	10852	3469.146274863452	1
0	10853	3469.380204887263	0
0	10862	3470.509928729236	1
0	10866	3471.175587546121	2
0	10870	3472.041085554756	1
0	10876	3472.290152473513	2
0	10881	3474.420121848326	3
0	10883	3474.442761414133	4
0	10885	3477.538218495814	5
0	10887	3478.140032566247	6
0	10890	3479.217399605399	5
0	10896	3479.808925523957	4
0	10903	3482.570527400969	5
0	10905	3482.777955990525	6
0	10906	3483.276593092952	5
0	10911	3483.838570067676	4
0	10918	3487.848285943599	5
0	10919	3488.258039948427	4
0	10924	3488.460047492614	3
0	10935	3490.606982715768	4
0	10936	3492.528411172967	3
0	10943	3494.686603815305	4
0	10945	3495.912609777434	5
0	10948	3500.850981460954	4
0	10954	3501.538907024705	5
0	10957	3504.866067081542	6
0	10959	3505.269180225169	7
0	10961	3505.456419632021	8
0	10963	3505.553245306726	9
0	10964	3505.614895133153	8
0	10969	3505.970583707226	7
0	10974	3507.281399020859	6
0	10981	3510.07885215985	7
0	10983	3511.794143609317	6
0	10988	3512.000247047353	5
0	10996	3515.348079906919	6
0	10999	3516.00803235716	7
0	11001	3518.276896265014	6
0	11006	3519.567882658488	5
0	11012	3520.435209091169	4
0	11020	3521.342849327523	3
0	11025	3521.658396149505	2
0	11036	3528.313861756805	1
0	11044	3532.22096881967	0
0	11051	3533.395708465154	1
0	11053	3536.489558952641	2
0	11054	3537.726567732065	1
0	11060	3538.872278057646	2
0	11061	3539.086423796523	1
0	11066	3539.840792434523	0
0	11083	3540.297540482462	1
0	11086	3541.096071363775	0
0	11103	3549.204713394189	1
0	11105	3549.885189541798	2
0	11108	3551.502189339579	1
0	11114	3560.009835687605	0
0	11131	3563.953445701183	1
0	11132	3564.277853907844	0
0	11151	3565.668466925663	1
0	11157	3566.685056631576	2
0	11160	3569.900412935818	1
0	11165	3570.705949585816	0
0	11178	3573.474775932398	1
0	11179	3573.655727531484	0
0	11185	3573.949779546338	1
0	11189	3575.053091624435	0
0	11195	3576.506461743603	1
0	11196	3576.611681411534	0
0	11204	3580.931670750365	1
0	11205	3581.502960699246	0
0	11213	3584.327132170611	1
0	11215	3585.614994538172	0
0	11233	3593.666792994798	1
0	11235	3595.905327111388	2
0	11236	3596.389560618193	1
0	11242	3598.353673986673	0
0	11249	3600.050884821624	1
0	11250	3602.542192109683	0
0	11256	3603.75260052574	1
0	11259	3606.949973818639	2
0	11260	3609.153137954829	1
0	11267	3610.013686656645	2
0	11275	3613.070970059453	3
0	11276	3617.14088914955	2
0	11282	3618.948673932951	1
0	11287	3619.555741448456	0
0	11306	3622.900470635818	1
0	11309	3623.905923528285	0
0	11323	3627.630825411387	1
0	11325	3628.523879598804	2
0	11327	3629.09026074429	3
0	11330	3630.767158796416	2
0	11337	3632.604060505813	1
0	11348	3634.978598552871	2
0	11353	3635.748437896919	1
0	11358	3636.494947075758	0
0	11387	3643.522409754698	1
0	11388	3644.793203256901	0
0	11395	3648.43131661545	1
0	11396	3651.156050467794	0
0	11403	3652.449677935161	1
0	11404	3652.610018260989	0
0	11410	3653.091489176783	1
0	11413	3653.524056931471	2
0	11414	3653.773034397786	1
0	11420	3655.026183141287	0
0	11432	3656.30354081726	1
0	11433	3657.026747388465	0
0	11445	3658.66844118453	1
0	11447	3658.840680069615	2
0	11448	3660.924293991184	1
0	11453	3661.150702965389	0
0	11476	3669.798405460154	1
0	11479	3672.251010511804	0
0	11488	3672.963727461268	1
0	11493	3677.260870410794	0
0	11518	3684.190399906041	1
0	11520	3684.607269995974	0
0	11529	3687.028649127102	1
0	11530	3687.10868391341	0
0	11543	3689.543089631313	1
0	11545	3690.429418114443	2
0	11546	3690.580163631558	1
0	11554	3691.63373319308	0
0	11568	3692.942238579314	1
0	11572	3693.356826892071	2
0	11575	3697.979979719985	3
0	11576	3703.679493451935	2
0	11582	3705.862412321895	1
0	11592	3709.510391159494	0
0	11617	3721.231556040549	1
0	11620	3723.632859698433	0
0	11626	3723.864893085679	1
0	11628	3725.615061982225	2
0	11629	3726.171279502836	1
0	11634	3726.954920841494	0
0	11648	3738.329748418516	1
0	11649	3741.033808782214	0
0	11657	3742.680861539583	1
0	11659	3743.705828914432	2
0	11662	3745.067784887273	1
0	11667	3745.505375518156	0
0	11674	3746.338388050485	1
0	11676	3746.509724702145	2
0	11682	3747.167955060762	3
0	11683	3747.349854872364	2
0	11689	3748.552525721141	3
0	11691	3749.12048755074	2
0	11698	3751.02185986672	1
0	11705	3751.429057705422	2
0	11706	3751.58209482212	1
0	11713	3751.925023529857	0
0	11755	3764.994676601116	1
0	11759	3769.372506527183	2
0	11760	3769.800483491848	1
0	11766	3769.891537962726	2
0	11769	3771.956929444219	3
0	11777	3774.026070540699	2
0	11784	3775.309694666206	3
0	11788	3776.388643852314	4
0	11789	3776.389240659737	3
0	11796	3779.982406009769	4
0	11799	3780.887267627121	5
0	11800	3781.176259675714	4
0	11805	3781.343959672516	3
0	11810	3781.66430872582	2
0	11815	3782.046982362189	1
0	11820	3782.777602387416	0
0	11846	3787.87225903959	1
0	11847	3788.727404257973	0
0	11884	3800.251365046271	1
0	11886	3801.006490908749	2
0	11890	3801.885070081662	3
0	11892	3802.26099971247	4
0	11893	3802.529607451974	3
0	11899	3804.224652933539	2
0	11908	3805.742541247885	3
0	11910	3805.976187129966	2
0	11916	3806.0919265299	3
0	11919	3806.445949612543	4
0	11920	3806.511251314449	3
0	11927	3808.241993833048	2
0	11933	3811.445780511871	1
0	11940	3813.064839291481	2
0	11944	3817.729389535538	3
0	11945	3821.309808055915	2
0	11951	3821.622771621999	3
0	11956	3825.944544192202	2
0	11965	3828.385283646871	3
0	11966	3829.275551501276	2
0	11972	3831.269214746088	1
0	11979	3834.608312774686	2
0	11980	3838.478725810869	1
0	11985	3838.516697637668	0
0	11998	3839.4397313533	1
0	12003	3841.511696307687	0
0	12009	3842.291941697223	1
0	12011	3842.608621572491	0
0	12038	3847.661380462503	1
0	12040	3850.336375321739	2
0	12043	3851.952107265472	1
0	12049	3852.07240252069	2
0	12053	3854.287699636942	1
0	12058	3855.065699463959	0
0	12064	3855.131496336739	1
0	12066	3855.966363648637	0
0	12086	3859.355826363782	1
0	12088	3861.155956710583	2
0	12089	3861.434294399305	1
0	12099	3866.350269685617	2
0	12100	3867.670046747485	1
0	12106	3868.021049682836	2
0	12108	3869.07803631672	1
0	12113	3869.554753576394	0
0	12123	3871.175591833024	1
0	12124	3874.531206191481	0
0	12133	3879.354505576154	1
0	12134	3880.73213405503	0
0	12156	3886.443362890898	1
0	12157	3886.662153392238	0
0	12169	3888.854064315175	1
0	12176	3891.622415446147	2
0	12177	3892.033798961264	1
0	12182	3892.322721716847	0
0	12208	3897.518060193675	1
0	12212	3901.255760875572	2
0	12214	3901.430975470449	3
0	12216	3902.518374703339	4
0	12217	3902.742310580365	3
0	12223	3903.907902261136	2
0	12234	3912.422072562299	1
0	12239	3914.999778730374	0
0	12255	3917.789971220244	1
0	12261	3924.702375717853	0
0	12284	3930.853880780573	1
0	12286	3931.917649853137	2
0	12288	3933.503661702426	3
0	12289	3934.349857799667	2
0	12294	3935.821057371987	1
0	12299	3936.178699317457	0
0	12313	3938.291024810831	1
0	12314	3939.444057269689	0
0	12326	3940.748046636895	1
0	12328	3941.260849550018	0
0	12340	3942.494283306759	1
0	12344	3942.762380760835	2
0	12345	3943.076758704272	1
0	12351	3948.923355796678	0
0	12382	3956.337334789935	1
0	12384	3958.238831759355	0
0	12396	3960.990376305259	1
0	12398	3961.176284115592	2
0	12400	3961.937332574696	3
0	12402	3963.290074357202	4
0	12403	3964.177684789893	3
0	12408	3964.992888288364	2
0	12420	3968.614191700543	3
0	12421	3968.939880945541	2
0	12427	3970.859176931032	1
0	12434	3972.051761813359	2
0	12435	3973.584494928643	1
0	12440	3974.377989025128	0
0	12446	3976.283390206786	1
0	12455	3978.490956225402	0
0	12469	3980.931770371366	1
0	12470	3980.950927286659	0
0	12488	3983.954676128386	1
0	12490	3985.792811174391	2
0	12493	3991.779452843489	1
0	12504	3996.751005330781	2
0	12506	3997.845624433484	3
0	12508	3998.805668890085	4
0	12509	3998.987849939736	3
0	12514	3999.758810079135	2
0	12522	4001.577224593172	1
0	12529	4002.343216460873	0
0	12543	4005.335641913815	1
0	12545	4010.422752801857	0
0	12557	4011.479986478071	1
0	12558	4011.917789306291	0
0	12569	4013.80261285986	1
0	12570	4014.754609679915	0
0	12581	4015.409706778191	1
0	12582	4015.502753605825	0
0	12590	4015.741414957064	1
0	12592	4015.998254962084	0
0	12613	4025.131832991713	1
0	12615	4025.184150684983	2
0	12621	4026.701956959982	3
0	12625	4029.628491632364	2
0	12630	4030.244982500096	1
0	12638	4030.630040314523	2
0	12639	4031.338054423324	1
0	12645	4031.747336447735	2
0	12647	4033.969064437855	1
0	12653	4033.97139220452	2
0	12654	4035.655663366673	1
0	12660	4035.678160155927	2
0	12662	4035.833784904977	3
0	12670	4040.750041218162	4
0	12671	4042.449683852539	3
0	12677	4042.763999836602	4
0	12679	4043.789692446188	3
0	12688	4045.833798940383	4
0	12689	4046.80904863432	3
0	12695	4049.999510188719	2
0	12702	4051.650910706525	1
0	12708	4053.632727287394	0
0	12719	4055.914557496856	1
0	12723	4060.502831143322	0
0	12742	4067.785846089774	1
0	12745	4069.224539668076	0
0	12754	4070.686385562651	1
0	12759	4071.840756663387	0
0	12770	4073.373883053178	1
0	12773	4074.209498771091	2
0	12775	4074.661366048479	1
0	12782	4075.606510159712	0
0	12802	4080.390633055292	1
0	12804	4081.342970220672	2
0	12805	4081.971886037422	1
0	12813	4084.236463586413	2
0	12815	4085.614535447901	1
0	12822	4085.912750339663	0
0	12845	4094.850685544143	1
0	12847	4097.012356357137	2
0	12848	4098.377162455727	1
0	12854	4098.685374944508	2
0	12859	4105.224636895329	3
0	12860	4105.518511766706	2
0	12867	4109.716190979268	3
0	12868	4110.406219647331	2
0	12873	4111.167464875876	1
0	12879	4111.977139048616	2
0	12880	4113.578986090729	1
0	12887	4114.244013301649	0
0	12900	4116.831230929315	1
0	12903	4118.994867948743	2
0	12904	4119.611749637776	1
0	12912	4122.027248316399	0
0	12926	4126.454751227018	1
0	12929	4128.29832392923	0
0	12936	4132.729051919053	1
0	12938	4133.301847438542	2
0	12939	4134.516373729671	1
0	12944	4134.872062378752	0
0	12950	4134.907619083288	1
0	12954	4135.700258801631	0
0	12967	4138.287818874787	1
0	12969	4143.454580233069	2
0	12971	4144.949612303603	3
0	12972	4145.332867390462	2
0	12979	4146.33392283029	1
0	12985	4146.421127602912	2
0	12987	4148.073823309317	3
0	12995	4150.391185310735	2
0	13000	4150.575119840932	1
0	13006	4154.451731895429	0
0	13020	4161.526033869024	1
0	13024	4163.620024755936	2
0	13026	4165.536121237185	3
0	13028	4169.447032001403	4
0	13033	4172.519717852969	3
0	13039	4173.313510534936	2
0	13046	4175.521748661735	1
0	13052	4177.07379764707	0
0	13069	4178.951089899884	1
0	13070	4179.149329205526	0
0	13076	4179.326359617945	1
0	13079	4182.675107336116	2
0	13080	4182.970223818535	1
0	13086	4184.401206869146	0
0	13092	4185.536395962459	1
0	13095	4186.613878097508	0
0	13115	4189.162067890154	1
0	13116	4192.30184336035	0
0	13133	4196.023286014644	1
0	13134	4196.902285448533	0
0	13145	4200.133035564527	1
0	13148	4201.986049204253	0
0	13170	4214.548501436171	1
0	13181	4219.179715071265	2
0	13182	4221.905765639359	1
0	13188	4222.047810322562	2
0	13189	4222.475595019429	1
0	13194	4223.500411373264	0
0	13217	4228.908700432763	1
0	13222	4231.782551264383	2
0	13223	4233.017967349309	1
0	13233	4237.031049073198	0
0	13239	4237.204480241828	1
0	13240	4237.333188408017	0
0	13246	4238.521924049833	1
0	13250	4242.958661194485	2
0	13255	4244.193871672125	1
0	13261	4244.496102053697	2
0	13262	4244.605714623041	1
0	13268	4245.698909109713	0
0	13274	4245.896416301495	1
0	13275	4246.728026720951	0
0	13319	4258.031152169807	1
0	13323	4260.75001339272	0
0	13347	4271.391141564973	1
0	13348	4272.48636990304	0
0	13355	4272.916374880353	1
0	13356	4273.582882446001	0
0	13366	4277.395830535919	1
0	13367	4277.399195302914	0
0	13373	4277.706860788168	1
0	13375	4280.617123744679	0
0	13382	4281.311563068015	1
0	13383	4285.235771657335	0
0	13397	4287.357803307988	1
0	13399	4288.416707049798	2
0	13400	4289.100267977253	1
0	13405	4289.413058697769	0
0	13425	4297.954474512986	1
0	13426	4298.226989700158	0
0	13461	4309.917493634165	1
0	13466	4312.396081850022	0
0	13495	4329.44386567023	1
0	13497	4331.48467459479	2
0	13498	4332.911063077912	1
0	13504	4333.955391345719	0
0	13515	4335.734275453392	1
0	13516	4338.079667915417	0
0	13527	4338.936676356406	1
0	13529	4339.127033505856	2
0	13531	4339.688927325409	1
0	13537	4342.842682496047	0
0	13555	4347.410311972993	1
0	13558	4348.276955770952	0
0	13564	4348.389918550017	1
0	13568	4349.469007751627	2
0	13569	4351.650301347362	1
0	13574	4352.212891291587	0
0	13590	4354.171559659947	1
0	13591	4354.421620234569	0
0	13602	4358.330295969568	1
0	13603	4359.623346411499	0
0	13613	4362.954076402903	1
0	13615	4364.679874295426	2
0	13616	4366.305304689449	1
0	13621	4366.318415074947	0
0	13627	4366.492856961097	1
0	13628	4367.886130867554	0
0	13634	4368.36074333572	1
0	13636	4368.912512057717	0
0	13660	4374.782151972661	1
0	13662	4375.980113070711	2
0	13663	4376.325751555224	1
0	13668	4376.334543175424	0
0	13689	4380.244325117812	1
0	13694	4381.171407401758	2
0	13697	4382.818743665971	3
0	13700	4383.157842520156	2
0	13706	4383.193013778112	3
0	13710	4386.241470809628	2
0	13715	4386.518688648422	1
0	13727	4390.010158840137	0
0	13742	4394.69851424193	1
0	13745	4394.900555573139	0
0	13769	4402.839317186746	1
0	13772	4404.991910172686	0
0	13789	4415.985371923884	1
0	13790	4416.091548180657	0
0	13814	4422.812459411039	1
0	13817	4423.962949440412	0
0	13826	4424.381969733716	1
0	13829	4425.145948372529	0
0	13835	4426.837649363224	1
0	13838	4427.920308016324	0
0	13851	4430.976750617855	1
0	13854	4431.021724240672	2
0	13856	4432.083227247927	1
0	13863	4433.568133326925	0
0	13881	4442.888901617244	1
0	13882	4444.539608155048	0
0	13901	4448.001691954962	1
0	13904	4449.264004986718	0
0	13937	4457.58462139526	1
0	13939	4458.004909129477	2
0	13943	4458.448804266715	3
0	13945	4458.677784224821	4
0	13947	4459.830489034687	5
0	13948	4460.955800918952	4
0	13957	4463.439834743083	3
0	13962	4463.820727149985	2
0	13968	4463.891571687685	3
0	13969	4463.960811106887	2
0	13979	4468.08132061444	1
0	13985	4468.092788231492	2
0	13986	4469.638394813223	1
0	13992	4470.533421186598	0
0	13998	4470.550460405245	1
0	14001	4472.022889635212	2
0	14003	4472.278899814732	1
0	14010	4472.692692896271	2
0	14012	4473.099000023292	1
0	14020	4475.101291580723	2
0	14021	4475.232444621242	1
0	14026	4475.657737446696	0
0	14051	4482.759283542022	1
0	14052	4485.264273024093	0
0	14067	4488.239565422207	1
0	14068	4489.185268053738	0
0	14093	4495.835912813076	1
0	14096	4496.401418223566	0
0	14102	4496.609232235932	1
0	14104	4498.579028353085	0
0	14116	4501.586571739691	1
0	14119	4503.649640698083	0
0	14126	4504.253836219831	1
0	14131	4506.346497309063	0
0	14154	4511.597692178981	1
0	14155	4511.789341424909	0
0	14174	4519.353607670454	1
0	14175	4520.438935957444	0
0	14185	4524.494074102331	1
0	14191	4526.616591805012	2
0	14192	4527.824495394383	1
0	14197	4528.066893602425	0
0	14203	4528.750377732832	1
0	14207	4532.429455712178	0
0	14216	4532.738753670704	1
0	14220	4535.258796916101	2
0	14222	4535.541039254476	3
0	14224	4536.614586718559	4
0	14229	4541.028147439874	3
0	14236	4542.436801193275	2
0	14243	4542.61619938537	3
0	14245	4543.845376645376	2
0	14251	4544.939680800122	1
0	14256	4545.246410059552	0
0	14302	4559.832372825757	1
0	14303	4559.886126883654	0
0	14327	4569.462395102814	1
0	14333	4573.571132235584	0
0	14369	4585.898248133172	1
0	14372	4586.929173287053	0
0	14397	4594.548992678036	1
0	14401	4596.908080433647	2
0	14403	4597.290648836795	3
0	14404	4598.659049121832	2
0	14410	4598.799119571942	1
0	14415	4599.207799906719	0
0	14422	4599.557003324578	1
0	14424	4600.97844135635	0
0	14444	4609.634096901984	1
0	14448	4611.409722172253	2
0	14449	4611.67435419769	1
0	14455	4612.484210539994	0
0	14464	4614.618534961552	1
0	14467	4615.726262865882	0
0	14474	4616.327666170888	1
0	14477	4617.735905889261	2
0	14478	4619.258311030402	1
0	14484	4619.999254474164	2
0	14489	4621.502949708412	1
0	14496	4622.859865703782	2
0	14499	4627.856599195336	1
0	14505	4628.669686874883	0
0	14517	4631.245014956152	1
0	14519	4631.873632116461	0
0	14526	4634.19823952926	1
0	14527	4634.938851649214	0
0	14574	4647.112639120522	1
0	14580	4649.823602688958	2
0	14582	4651.983013416757	3
0	14589	4659.937511142395	2
0	14596	4660.666689334907	3
0	14598	4661.244110595528	2
0	14603	4661.671322476139	1
0	14610	4664.52677568041	0
0	14625	4666.743934671242	1
0	14627	4668.020004861148	0
0	14682	4684.063408544149	1
0	14683	4685.350227793286	0
0	14699	4690.504459717783	1
0	14700	4690.844570871281	0
0	14706	4692.870090871382	1
0	14708	4693.764819070362	0
0	14716	4696.488293981826	1
0	14720	4698.006740410422	2
0	14722	4699.720721029161	3
0	14725	4702.695000398925	2
0	14733	4704.612554627132	3
0	14735	4706.938988717213	4
0	14737	4710.567701084417	5
0	14739	4711.638369555472	6
0	14740	4712.486500748979	5
0	14745	4714.819005806705	4
0	14750	4714.890110645984	3
0	14758	4717.084707287412	4
0	14760	4718.117715072718	5
0	14762	4721.915552880817	4
0	14767	4723.764146791961	3
0	14773	4725.748670316143	4
0	14778	4729.390935922945	5
0	14779	4731.664359209099	4
0	14787	4732.235706982986	3
0	14792	4732.353054970328	2
0	14797	4733.14988142718	1
0	14805	4735.422367670115	2
0	14807	4735.997018812633	3
0	14808	4736.157362579806	2
0	14815	4737.422514772169	1
0	14820	4737.572770481113	0
0	14826	4737.881464478237	1
0	14830	4741.720977489693	2
0	14832	4741.935596363883	3
0	14835	4743.722080353568	2
0	14841	4745.448466308401	1
0	14846	4745.458420173442	0
0	14881	4753.820803385832	1
0	14882	4756.981004274891	0
0	14902	4759.322325140367	1
0	14904	4760.844972034145	0
0	14916	4763.180156538904	1
0	14917	4766.602971582791	0
0	14923	4766.811684827534	1
0	14930	4776.640534828041	0
0	14950	4780.752701932185	1
0	14953	4782.535107003334	0
0	14959	4783.056332093883	1
0	14963	4789.352528323973	2
0	14965	4790.361604605641	3
0	14966	4791.200452712894	2
0	14972	4792.121185107877	3
0	14974	4792.821989653715	4
0	14979	4794.1043304824	3
0	14985	4794.862364606048	4
0	14987	4796.29619056878	3
0	14992	4796.316061763764	2
0	14999	4797.105706837838	3
0	15001	4798.433424852749	2
0	15008	4801.62759402245	1
0	15017	4804.623019537938	0
0	15028	4805.889711312271	1
0	15029	4806.425026617168	0
0	15037	4807.547030227456	1
0	15038	4809.694345880931	0
0	15095	4829.698649780063	1
0	15099	4830.822978224081	2
0	15100	4831.987565284505	1
0	15112	4838.131660018109	0
0	15124	4840.770146514298	1
0	15126	4842.393572120241	2
0	15127	4842.540432867921	1
0	15134	4848.290201650877	2
0	15135	4848.344618261276	1
0	15143	4850.522334983124	0
0	15149	4850.55027960322	1
0	15151	4851.644614066785	2
0	15152	4851.658638145998	1
0	15162	4855.116018781192	2
0	15164	4855.943900887789	3
0	15165	4856.419438124695	2
0	15170	4856.567428033288	1
0	15180	4859.339614145138	2
0	15181	4860.095687013352	1
0	15191	4869.074239264271	0
0	15200	4870.820573957561	1
0	15202	4870.89983055282	2
0	15211	4878.422030740865	3
0	15212	4881.673527722239	2
0	15219	4882.839892510775	3
0	15220	4882.91517798638	2
0	15225	4883.870946294326	1
0	15230	4883.971571632275	0
0	15238	4885.459325847356	1
0	15239	4886.267181549993	0
0	15245	4886.616940420479	1
0	15249	4887.988150701664	0
0	15255	4888.120642403638	1
0	15257	4890.253534094529	0
0	15263	4891.183777136974	1
0	15264	4891.853712965898	0
0	15278	4894.04913277181	1
0	15283	4897.192350207954	2
0	15284	4897.734738489562	1
0	15293	4899.291088604373	0
0	15305	4900.730912126491	1
0	15306	4900.948284851518	0
0	15312	4902.85256725346	1
0	15313	4903.657028328527	0
0	15320	4905.099884062559	1
0	15322	4905.432138089853	0
0	15341	4908.062843718652	1
0	15342	4908.549694049632	0
0	15349	4910.051149351273	1
0	15350	4910.482449371965	0
0	15356	4911.062697856526	1
0	15357	4911.405096813385	0
0	15379	4917.000651952937	1
0	15380	4917.235437756073	0
0	15387	4918.300546642624	1
0	15392	4918.478584116538	2
0	15393	4919.000281338612	1
0	15399	4921.410072002002	0
0	15406	4922.29439792313	1
0	15407	4924.275663441013	0
0	15421	4925.597270783341	1
0	15422	4926.73426743623	0
0	15435	4930.030182171026	1
0	15439	4934.060080539935	0
0	15464	4942.472861765261	1
0	15465	4944.219532722234	0
0	15478	4948.10804987732	1
0	15481	4950.513979918855	0
0	15494	4954.145560270291	1
0	15498	4956.729233975992	2
0	15499	4956.853907802057	1
0	15507	4958.439476422251	0
0	15527	4973.942567829473	1
0	15530	4975.149364299121	0
0	15562	4981.556198494292	1
0	15563	4982.015412496245	0
0	15572	4983.028520974743	1
0	15575	4983.837659235102	0
0	15586	4985.219730201282	1
0	15590	4987.014032958996	2
0	15592	4989.069796525717	3
0	15594	4989.575914108118	4
0	15595	4989.592947215691	3
0	15601	4989.616144843842	4
0	15602	4990.575149132846	3
0	15607	4990.651266826846	2
0	15613	4990.675288804441	3
0	15617	4992.091820209125	2
0	15622	4992.187644348451	1
0	15628	4992.372064489799	2
0	15629	4992.519838066234	1
0	15635	4992.836578000607	2
0	15647	5003.039306714674	1
0	15654	5004.957667108905	2
0	15656	5009.208388793465	3
0	15657	5009.522207272853	2
0	15664	5010.594766035873	3
0	15665	5011.12923837259	2
0	15672	5014.52728136398	3
0	15676	5018.623312044742	4
0	15678	5018.680956049875	5
0	15680	5020.076489234035	6
0	15682	5020.198044852962	7
0	15683	5021.969997671804	6
0	15688	5022.825559915109	5
0	15694	5023.417420323052	4
0	15700	5023.988124655903	3
0	15707	5026.300973756505	2
0	15712	5028.772162783364	1
0	15719	5031.119632248998	2
0	15722	5032.941796132307	1
0	15728	5034.33637734881	0
0	15734	5034.67673414716	1
0	15736	5035.004981856289	2
0	15739	5037.286867920507	1
0	15746	5039.57133302544	2
0	15750	5042.328697178667	3
0	15752	5044.01573789529	4
0	15755	5045.695671613097	3
0	15762	5046.502055774563	4
0	15764	5048.827673105946	5
0	15765	5048.88410086164	4
0	15772	5050.035883829823	3
0	15779	5052.581340752488	2
0	15787	5054.041462948934	3
0	15788	5054.896968704096	2
0	15794	5054.918308636927	3
0	15798	5055.513506808288	4
0	15800	5055.528435656766	5
0	15803	5056.329194758063	4
0	15809	5060.433768049776	3
0	15815	5060.97905243941	4
0	15816	5061.946084729306	3
0	15823	5062.084966644761	4
0	15832	5072.427002091812	3
0	15837	5072.637826225244	2
0	15842	5076.046589112446	1
0	15847	5076.543366924621	0
0	15858	5077.953118155019	1
0	15860	5079.037697905194	0
0	15883	5082.221059214677	1
0	15884	5086.086675119208	0
0	15891	5086.2822697316	1
0	15892	5086.910829844474	0
0	15931	5094.056980623913	1
0	15932	5094.339802087287	0
0	15938	5094.341616602498	1
0	15939	5094.688282358689	0
0	15955	5095.391621900668	1
0	15958	5095.396238534213	2
0	15960	5096.317523554729	1
0	15965	5097.904251662518	0
0	15973	5098.511501969221	1
0	15974	5098.547152246981	0
0	15980	5098.681764661441	1
0	15984	5101.819709107588	0
0	16008	5105.640939040399	1
0	16010	5106.261283002226	0
0	16023	5111.110254899263	1
0	16024	5113.334198644571	0
0	16043	5118.430481036668	1
0	16045	5118.744897024102	2
0	16050	5119.309423746241	1
0	16056	5119.527974673539	2
0	16060	5121.81980982694	1
0	16067	5122.828439994457	2
0	16068	5122.980045772069	1
0	16075	5123.937882020359	0
0	16089	5128.652395458885	1
0	16093	5129.667659418089	2
0	16096	5130.085240224531	3
0	16097	5130.551484111672	2
0	16104	5131.241567755812	1
0	16112	5131.960185761843	2
0	16117	5138.433847712245	1
0	16122	5138.675149935994	0
0	16128	5138.905182006144	1
0	16129	5138.988521483195	0
0	16147	5140.917662956419	1
0	16149	5140.964317145996	2
0	16151	5141.970593260811	1
0	16157	5142.492811862153	2
0	16158	5142.518200032609	1
0	16164	5145.569499516362	0
0	16180	5150.846444955911	1
0	16181	5151.944290046268	0
0	16219	5166.911782029849	1
0	16222	5170.325290666511	0
0	16234	5177.381119927684	1
0	16235	5177.385165245594	0
0	16247	5177.834177712601	1
0	16248	5178.771848211261	0
0	16255	5180.557295195607	1
0	16256	5184.189595765826	0
0	16291	5202.77373229201	1
0	16292	5215.414338362845	0
0	16302	5216.013253630046	1
0	16307	5220.660973791013	0
0	16332	5228.325852198749	1
0	16336	5230.368254809347	0
0	16347	5231.176489094179	1
0	16348	5231.380164960173	0
0	16365	5235.680115535295	1
0	16366	5236.724492941118	0
0	16373	5239.177944156957	1
0	16374	5240.791347761779	0
0	16380	5241.438080065329	1
0	16384	5245.78802246187	0
0	16410	5258.29117759688	1
0	16411	5259.429870021047	0
0	16432	5270.093856876946	1
0	16435	5273.626672680613	0
0	16445	5274.112898631008	1
0	16449	5276.97896947714	2
0	16453	5278.882401142676	3
0	16455	5279.601230846564	4
0	16457	5280.484813995395	5
0	16458	5280.591858852668	4
0	16465	5282.336237892992	5
0	16466	5283.504127525982	4
0	16473	5285.569003594594	3
0	16480	5286.152198303596	2
0	16486	5286.238483611373	3
0	16488	5287.354745810334	2
0	16500	5288.462479038695	3
0	16504	5289.757362626156	4
0	16505	5290.19520696669	3
0	16511	5291.578116635617	2
0	16520	5296.375668631248	1
0	16525	5296.43908675522	0
0	16545	5298.998865355106	1
0	16547	5300.335837546893	0
0	16553	5300.660922194043	1
0	16554	5300.774496628844	0
0	16578	5304.311703484443	1
0	16580	5304.367173092516	2
0	16583	5305.641350193047	1
0	16588	5306.315740673958	0
0	16597	5308.367552340474	1
0	16600	5308.830912709652	0
0	16611	5313.117363442066	1
0	16617	5316.412631761844	2
0	16618	5317.347048932686	1
0	16624	5318.569009402961	2
0	16627	5318.855797597704	3
0	16628	5320.168171517298	2
0	16633	5320.707257459547	1
0	16640	5321.63594339753	2
0	16643	5323.285121728974	3
0	16644	5323.536599421585	2
0	16649	5324.974243063171	1
0	16655	5325.39512083641	2
0	16660	5328.270671756908	3
0	16661	5328.568339633836	2
0	16670	5332.148531950943	3
0	16672	5333.309000507029	4
0	16674	5333.771468642667	5
0	16676	5334.535569757698	6
0	16677	5336.212721454979	5
0	16685	5340.002575245601	4
0	16691	5340.616642591893	5
0	16694	5342.140195308951	6
0	16696	5344.482749291764	7
0	16697	5344.543183828617	6
0	16703	5345.470748118929	7
0	16704	5345.854297097214	6
0	16709	5348.246598572472	5
0	16720	5353.084605324987	4
0	16727	5354.526982469603	5
0	16731	5357.357713759247	6
0	16732	5358.10795252403	5
0	16738	5358.21802989295	6
0	16741	5361.145867893281	5
0	16746	5362.955564338913	4
0	16751	5363.19005587108	3
0	16760	5367.313159158766	4
0	16763	5367.591173648499	5
0	16767	5367.912398387085	6
0	16769	5368.210634998267	5
0	16774	5369.044596460264	4
0	16780	5369.200091174726	3
0	16786	5369.647555399834	4
0	16787	5370.73869933375	3
0	16797	5371.858279117769	4
0	16802	5374.420240924994	5
0	16803	5378.178990813318	4
0	16810	5379.82282974433	3
0	16815	5380.536915812193	2
0	16824	5383.18585901435	3
0	16826	5385.638000728082	2
0	16832	5386.726802748086	3
0	16835	5387.069136396898	2
0	16840	5388.913061272807	1
0	16844	5389.011759091552	2
0	16846	5389.550454590316	3
0	16851	5391.784986428668	2
0	16860	5396.834053984557	1
0	16865	5397.784088326754	0
0	16873	5398.601421353716	1
0	16875	5400.997938448278	2
0	16877	5402.184981465008	3
0	16878	5404.647133394926	2
0	16886	5408.233938894922	3
0	16890	5408.674482897697	4
0	16892	5410.752060466004	3
0	16897	5412.393526621348	2
0	16907	5414.318474987298	3
0	16911	5415.981883891757	4
0	16912	5417.150893804743	3
0	16918	5419.970351082345	4
0	16920	5421.567169271693	5
0	16921	5421.598305514072	4
0	16926	5423.065131220232	3
0	16933	5424.834791192926	2
0	16943	5426.691872434878	3
0	16945	5432.877837475902	2
0	16951	5433.476472871057	3
0	16953	5433.518967189474	4
0	16955	5437.450707073603	5
0	16957	5441.992291428863	6
0	16962	5447.579886349752	5
0	16967	5453.66932843911	4
0	16974	5457.673717798539	3
0	16979	5458.063411250704	2
0	16985	5464.501896379679	3
0	16987	5464.696393220216	4
0	16989	5465.400377444152	5
0	16990	5465.553945023286	4
0	17001	5468.366484193837	3
0	17005	5469.666647297498	4
0	17011	5471.637518637886	5
0	17012	5473.346140136731	4
0	17022	5478.454045993097	3
0	17028	5479.51021234199	4
0	17029	5480.237110140158	3
0	17037	5481.624958642427	4
0	17039	5485.800875940106	5
0	17041	5487.02268315804	6
0	17042	5487.563594997994	5
0	17048	5489.537307694931	6
0	17051	5490.064633541904	5
0	17057	5492.121736625803	6
0	17058	5493.476934079871	5
0	17064	5496.068427336533	6
0	17065	5496.193120580913	5
0	17073	5496.679507318885	4
0	17079	5499.366727612282	3
0	17086	5503.399988197024	2
0	17092	5503.827512003316	1
0	17102	5506.244325117428	0
0	17108	5506.654537201083	1
0	17109	5508.171791395644	0
0	17126	5511.736197372209	1
0	17128	5514.200706914584	0
0	17136	5515.436126691318	1
0	17138	5516.503457784861	0
0	17171	5528.830742839466	1
0	17172	5530.084389710961	0
0	17188	5535.661837140181	1
0	17190	5538.066882128247	2
0	17193	5539.12810923263	1
0	17199	5540.16733086237	0
0	17221	5550.18768694758	1
0	17230	5557.798523084381	0
0	17241	5562.359072950244	1
0	17244	5563.27425616199	2
0	17245	5563.53017408639	1
0	17254	5567.809416845893	2
0	17255	5569.961319610242	1
0	17261	5571.346136695942	0
0	17273	5572.669643312015	1
0	17275	5572.909626517626	2
0	17277	5573.290176819649	3
0	17281	5575.59384405502	2
0	17286	5576.333238626926	1
0	17292	5576.339914602037	2
0	17293	5577.242102854651	1
0	17301	5581.360754597218	0
0	17317	5586.807182332147	1
0	17320	5589.851379823527	0
0	17332	5591.272465785907	1
0	17333	5592.154479735898	0
0	17343	5593.914800805122	1
0	17344	5594.259306217795	0
0	17351	5596.588516996626	1
0	17353	5600.739999532004	2
0	17357	5607.317659486869	3
0	17359	5608.135602914634	4
0	17361	5608.415139078571	5
0	17364	5609.329585584701	4
0	17370	5609.957657306547	3
0	17376	5610.952464917527	2
0	17382	5611.764732782204	3
0	17384	5612.230094439353	4
0	17386	5612.739417006471	5
0	17388	5612.741940977116	6
0	17393	5614.431253246628	7
0	17396	5616.513790697274	8
0	17398	5616.536502707611	9
0	17402	5617.94113738788	10
0	17406	5619.908144914405	11
0	17408	5620.682811265783	12
0	17410	5622.197531781107	13
0	17411	5622.338738362228	12
0	17417	5623.967624670384	13
0	17418	5624.290429077731	12
0	17425	5626.181691148047	11
0	17431	5627.204419445016	12
0	17432	5627.865625022171	11
0	17437	5630.458280801004	10
0	17444	5633.427059494115	9
0	17450	5634.291857688504	10
0	17453	5637.159979044495	9
0	17458	5637.795443859784	8
0	17464	5639.354125243645	7
0	17471	5640.612427136969	8
0	17475	5643.024665718984	7
0	17483	5644.349615973625	8
0	17485	5644.59727673115	9
0	17487	5646.275231543549	8
0	17493	5646.668031836601	9
0	17495	5651.412213608794	8
0	17501	5653.113386585321	7
0	17507	5656.336584742486	6
0	17513	5657.786318045883	5
0	17520	5660.53113206207	6
0	17521	5660.619290965485	5
0	17527	5665.60217980383	4
0	17532	5667.370271593731	3
0	17538	5667.683118051572	2
0	17544	5669.237953815811	1
0	17552	5669.515968757766	2
0	17553	5670.100965430171	1
0	17566	5673.303087094601	2
0	17568	5675.223316170995	3
0	17575	5677.430606858692	4
0	17577	5677.714707583051	5
0	17580	5681.23471355475	6
0	17581	5681.891352559507	5
0	17586	5682.454266893676	4
0	17592	5682.490321106726	5
0	17593	5682.748148402552	4
0	17599	5683.728823278842	3
0	17606	5685.342194515702	2
0	17612	5685.362524363958	3
0	17614	5687.322529873354	2
0	17620	5687.379608217614	3
0	17625	5689.391848654417	2
0	17630	5689.657588405202	1
0	17635	5690.71490756378	0
0	17651	5695.657589534262	1
[...]
4	82720	26524.46246741196	5376.6705977041
4	82734	26528.092105342878	5373.7551032634
4	82772	26537.473323141622	5379.8497508141
4	82779	26540.377150305737	5378.2108849901
4	82794	26544.940729618667	5381.1892749762
4	82856	26570.270336981847	5393.7789780565
4	82861	26573.015334061334	5386.7959077133
4	82866	26575.827731925303	5385.7365510907
4	82879	26581.721322565647	5390.1981948289
4	82914	26588.658470716378	5395.7470571695
4	82919	26589.27337258192	5394.9232768384
4	82932	26596.686416807897	5401.1764471152
4	83305	26733.095660717519	5526.1252437197
4	83316	26734.357908872695	5525.9342349497
4	83322	26735.628715011136	5526.9545387796
4	83328	26736.054189003115	5523.6235220311
4	83333	26738.193157356951	5521.2160957105
4	83340	26738.354663557415	5516.0099034719
4	83351	26739.559720043303	5509.7738559759
4	83362	26745.469439053783	5504.5069062715
4	83395	26754.998321262237	5510.5512639905
4	83411	26761.6273281108	5514.4599292706
4	83586	26812.120145335995	5563.5558220982
4	83591	26816.473310201251	5565.8410938728
4	83598	26817.997170895439	5565.5646360829
4	83605	26819.80901770152	5566.4381574328
4	83617	26822.519963326696	5558.1201504388
4	83626	26826.776258591669	5554.4323094608
4	83668	26834.694607699865	5553.4814386335
4	83675	26836.49344493878	5555.1752119584
4	83686	26843.948437766024	5559.2885600913
4	83855	26895.884126475131	5605.7340505817
4	83872	26899.628144791529	5602.7835843116
4	83883	26907.444419854234	5596.2923388033
4	83890	26908.721297609913	5595.4172619418
4	83895	26908.933277293674	5592.7795216708
4	83902	26916.067779298518	5568.9527332
4	84018	26946.726177208898	5594.1359333321
4	84028	26953.195750233091	5600.2148336495
4	84038	26956.530449550354	5591.6432553933
4	84055	26959.513174003306	5586.680341356
4	84101	26979.382400862933	5591.3560531642
4	84106	26980.658900378797	5574.740077269
4	84115	26981.677518391579	5571.2113287516
4	84136	26986.004271497229	5573.794911791
4	84151	26990.502883094211	5574.9217874045
4	84158	26992.358394475083	5569.1534695664
4	84169	26993.461362025842	5567.0278698173
4	84178	26998.291399294686	5566.7170427477
4	84200	27001.500019482391	5569.0191074205
4	84205	27001.706577326235	5564.7433938844
4	84214	27009.139025266245	5570.4306230807
4	84304	27027.826184097426	5587.4111854385
4	84309	27028.490771387998	5583.8333610593
4	84315	27031.36343704011	5585.4154680065
4	84324	27034.7508362002	5587.7400295566
4	84339	27041.920202458061	5593.3614104372
4	84346	27042.743090013697	5587.3565787966
4	84359	27044.80273655995	5584.1743525696
4	84437	27069.001273420812	5602.6836340707
4	84448	27070.810734001663	5602.8348671133
4	84453	27072.369670776225	5590.0206079916
4	84459	27072.954823566037	5584.8906892686
4	84468	27080.535672774064	5588.754220881
4	84584	27119.784449934566	5625.9500608785
4	84591	27121.806555120661	5615.6846176487
4	84667	27143.694322884068	5634.3112529931
4	84674	27146.0810319537	5631.759336461
4	84679	27149.584149092312	5625.617508685
4	84686	27153.008117870599	5625.5367190887
4	84691	27153.9630087579	5625.9883331989
4	84696	27155.744994042151	5605.296122998
4	84712	27164.740037609945	5606.3605822701
4	84748	27173.848433091638	5610.379004473
4	84753	27174.189023701684	5598.1695083015
4	84760	27179.028344871282	5600.5326327616
4	84771	27183.100222559741	5601.8159773838
4	84778	27184.332764531906	5599.1205144087
4	84789	27185.324251286696	5599.4162040696
4	84796	27191.43219031148	5591.8454422982
4	84803	27194.105897949318	5585.4179114899
4	84816	27196.312889857638	5579.0892397936
4	84823	27199.238347482979	5577.6234257693
4	84857	27204.788746200762	5554.5516553345
4	84922	27227.05296723714	5570.8992743728
4	84929	27230.090555699162	5572.967854831
4	84938	27237.456229376008	5578.2650427175
4	84964	27241.018177216297	5581.6369980268
4	84996	27251.545561729161	5578.4506865037
4	85057	27273.910413841175	5599.8222990929
4	85062	27273.917132327299	5599.4782430572
4	85067	27274.720852528982	5588.6962140464
4	85076	27279.712630339932	5586.3420219015
4	85090	27281.138316731343	5585.238808079
4	85095	27285.205805664817	5583.6870572056
4	85112	27298.823973389457	5586.8871301749
4	85210	27331.518942440202	5618.9185178919
4	85239	27339.52632868023	5626.8296422288
4	85258	27345.724180709453	5632.4167008302
4	85280	27350.810143516017	5621.8282477519
4	85287	27352.722538175452	5611.8480381682
4	85295	27355.771578146434	5600.8305999022
4	85300	27362.589304435138	5590.9088434872
4	85307	27363.769861790234	5591.0400927923
4	85324	27372.201805043155	5598.0529841687
4	85347	27377.727212889992	5596.337489342
4	85354	27381.469497880107	5597.0919769794
4	85367	27387.346733653033	5601.2114654879
4	85419	27408.651768825037	5607.3544250432
4	85439	27417.393796560771	5611.6598324011
4	85563	27462.169642608791	5649.2634209924
4	85602	27474.654835579526	5651.4595134325
4	85858	27565.218961660334	5729.1241489487
4	85863	27565.616316460236	5726.0366835083
4	85873	27570.071594171263	5714.5679769572
4	85885	27572.08489168894	5716.2045002891
4	85892	27573.64919399339	5713.7606879573
4	85898	27574.088351886819	5712.2516548939
4	85903	27575.413667642796	5712.2730600015
4	85914	27578.478581963241	5713.8340938358
4	85923	27582.336326523331	5712.6174663847
4	85955	27593.709581150644	5721.9367957672
4	85960	27596.681318746749	5723.1226369974
4	85965	27599.679240373205	5725.7044717369
4	85970	27602.56757048383	5722.994343073
4	85977	27605.127586021472	5719.2287974435
4	85998	27609.494552951837	5721.1655926645
4	86049	27630.328580021646	5739.9130139546
4	86107	27648.020459405833	5756.9900937202
4	86138	27654.999185537175	5760.7568041861
4	86160	27659.729844677822	5759.39553272
4	86176	27661.948991582995	5760.532555254
4	86181	27664.160414372457	5753.6126823449
4	86194	27675.915795574523	5761.6467773616
4	86236	27682.509584734928	5765.4332351079
4	86254	27690.836003993858	5765.2299718905
4	86280	27698.396854190849	5769.304167205
4	86288	27702.786477125887	5765.6566331657
4	86302	27705.541193820021	5765.6843157372
4	86307	27705.91093760274	5763.5928970235
4	86314	27713.576933361495	5763.8664368741
4	86319	27714.358423222278	5763.0579241102
4	86328	27717.144551153772	5761.1960422941
4	86338	27720.848444176993	5761.9031763872
4	86344	27722.496386296861	5756.090235731
4	86351	27723.769567441445	5755.2448247524
4	86356	27724.779857457349	5755.353380329
4	86365	27728.391240101608	5758.4706107143
4	86376	27732.785543778707	5750.5708358438
4	86395	27742.956098415761	5743.7392549727
4	86405	27745.721878219986	5745.4551912192
4	86421	27749.490342593435	5742.6572782507
4	86442	27752.689951895564	5738.7459285058
4	86605	27807.090289429531	5787.6205710697
4	86610	27808.298532105511	5781.8962928597
4	86618	27811.646696350169	5785.2069324026
4	86625	27814.505189591969	5785.4037208164
4	86639	27819.076159010891	5789.9609706222
4	86671	27832.766409371577	5790.40826144
4	86676	27833.124495728725	5787.9032547624
4	86685	27837.514238582434	5791.1838937562
4	86703	27842.412288310189	5791.6904238277
4	86712	27845.313367002062	5785.0545690544
4	86789	27866.363099318968	5799.1386405891
4	86800	27873.808017461318	5797.9471027596
4	86812	27878.645663699621	5802.477033067
4	86817	27880.122974184341	5798.946407566
4	86824	27883.097302593456	5793.4211071826
4	86829	27887.282707148192	5793.3821889422
4	86839	27890.809438823646	5788.0190718405
4	86908	27915.115594737424	5811.3800941531
4	86917	27918.023572033721	5814.1596018551
4	86928	27918.558067440898	5812.5586098156
4	86933	27920.538083794062	5810.6411944118
4	86940	27927.739311927969	5812.4175771595
4	86960	27934.581855493193	5818.8631099438
4	86970	27937.08362994002	5807.2952399318
4	87001	27946.057534827021	5811.4543158031
4	87094	27991.075713748163	5856.0247042373
4	87108	27993.757652709215	5857.762074382
4	87136	28003.780847574195	5855.1013282175
4	87152	28005.213638025033	5846.7814549254
4	87158	28008.603751249271	5848.5521950662
4	87163	28008.735954398431	5842.6402197512
4	87171	28010.428565124475	5824.8948163495
4	87181	28011.411380058039	5825.3351568866
4	87187	28012.761823857129	5814.9794867643
4	87196	28016.605895924191	5817.5122088567
4	87201	28019.222332132623	5815.1396091007
4	87208	28021.681320819047	5814.7731607367
4	87221	28029.938372710597	5821.5098795779
4	87261	28048.193076621355	5834.0375867783
4	87284	28051.515296166069	5826.4333238877
4	87423	28092.874928046324	5865.4760453233
4	87434	28096.027712826843	5864.9052306493
4	87448	28103.416373544594	5871.5112514539
4	87485	28117.16436423787	5865.6762207146
4	87509	28120.804501393932	5860.6039737701
4	87514	28121.115493795761	5853.0168194809
4	87521	28124.56765162821	5849.3874283223
4	87528	28125.820771502475	5838.347281016
4	87533	28128.795802606139	5832.9993355062
4	87538	28131.302646874516	5823.0124535654
4	87555	28137.963445358993	5821.2075063297
4	87637	28165.481711320225	5846.3053300719
4	87654	28175.087347366808	5849.4720950599
4	87729	28191.881876325147	5861.6603404063
4	87769	28206.732976153258	5854.5047106746
4	87777	28208.828754509692	5853.2974504389
4	87792	28213.369015573996	5855.8034495231
4	87822	28222.423696045119	5859.1248160377
4	87846	28225.709160115037	5861.5327002966
4	87886	28245.079307721815	5873.4786797238
4	87989	28279.152512965322	5904.5411158971
4	87997	28283.17612413995	5898.030326704
4	88006	28283.902283400529	5894.3396844312
4	88038	28293.202389964288	5898.6229420811
4	88043	28294.561385010828	5885.2652804472
4	88048	28296.34948977514	5881.983864649
4	88057	28301.571453733079	5884.8264283652
4	88068	28305.78247334033	5887.5995197618
4	88112	28318.85297221532	5895.6497882059
4	88125	28325.373597217976	5898.0624162415
4	88188	28348.996227303266	5917.0789577892
4	88194	28350.845761471783	5903.745757117
4	88201	28351.781962294781	5893.2729717381
4	88206	28354.564845306737	5895.0978969875
4	88215	28361.859448295531	5896.6473984489
4	88223	28363.708757868961	5895.4653985915
4	88228	28364.925877071688	5886.6554948958
4	88237	28368.034880563021	5870.479601035
4	88416	28414.09061330818	5913.3360879063
4	88426	28415.696432671019	5912.2071233701
4	88432	28416.722211626103	5902.1042291216
4	88441	28418.824140295718	5869.2622741489
4	88459	28422.69003082918	5872.058137039
4	88493	28436.045188677333	5879.8276712766
4	88531	28446.309859899992	5877.2031939367
4	88541	28449.392767662495	5879.7715988734
4	88546	28452.157379987298	5878.9805230162
4	88559	28454.91227428365	5879.5179816035
4	88584	28460.582752539068	5872.1019074013
4	88609	28468.550777493647	5875.6326895514
4	88619	28472.668894416657	5870.1004646328
4	88626	28475.279831447874	5868.3924282717
4	88646	28478.384802272652	5865.0585415529
4	88661	28484.505281985373	5867.0124827492
4	88705	28504.042241932516	5886.3988413868
4	88764	28519.401643309052	5898.000957153
4	88770	28522.013452256934	5892.1418734662
4	88776	28524.352445667475	5893.0050898154
4	88783	28525.125426123196	5875.5059380531
4	88788	28525.141971748935	5874.0808258904
4	88795	28525.830447770959	5868.0969348377
4	88810	28537.94395776456	5879.2618808799
4	88838	28547.286749657759	5887.483025324
4	88852	28553.605219862593	5878.5951185816
4	88857	28556.384178425817	5879.3248384459
4	88864	28558.016577020438	5876.7648173193
4	88875	28560.84153175581	5879.3331454131
4	88888	28571.840975364075	5884.7761057554
4	88920	28579.732348412181	5891.4607652896
4	88927	28581.445202185627	5880.9323728869
4	88967	28592.475235927136	5891.4504862149
4	89001	28605.792594347172	5898.461080662
4	89018	28613.07808378196	5899.8046744763
4	89030	28615.825367450304	5902.1488430651
4	89042	28617.766918166828	5896.276811947
4	89048	28618.955738685428	5895.44347326
4	89053	28620.687318619769	5890.8434657242
4	89062	28622.792222714997	5890.3333476796
4	89081	28627.11117256505	5891.7276033888
4	89086	28633.914928472953	5878.0397140111
4	89093	28637.274660310267	5869.5333948743
4	89112	28645.272281306167	5870.9763281906
4	89201	28669.664596813305	5894.4483663994
4	89206	28669.926814340935	5893.7946683541
4	89215	28673.94616091074	5896.5115256919
4	89222	28675.685783260934	5889.3726044282
4	89229	28677.474901913354	5886.5846519439
4	89238	28690.549584292133	5896.043669984
4	89275	28702.06144646504	5901.3358934507
4	89286	28703.186224224648	5900.4544197217
4	89293	28704.516392636161	5899.7340417109
4	89306	28708.165765692822	5900.9482770714
4	89340	28714.459792678403	5904.882944572
4	89345	28714.630939707321	5897.6213182251
4	89350	28719.573097601725	5894.4247764296
4	89359	28724.847728627257	5895.6834445145
4	89408	28733.586435944945	5902.3068656814
4	89416	28734.617100910794	5896.5017387071
4	89429	28738.187479490356	5893.389925854
4	89455	28740.904028425739	5894.967348297
4	89473	28750.775900177097	5895.9823480567
4	89524	28758.529543162918	5894.8607818198
4	89536	28765.405475110784	5898.4385142477
4	89556	28768.939118570176	5891.8124842246
4	89566	28771.409514306572	5890.3038119071
4	89579	28776.959014386557	5894.1105176948
4	89596	28784.532495909225	5894.8064887501
4	89611	28787.410442645106	5889.9536080205
4	89621	28791.42415965802	5863.2333021981
4	89637	28797.376840067771	5868.5206569291
4	89659	28800.130644841861	5863.4765792216
4	89664	28801.662296262019	5855.6580422211
4	89677	28805.36811340332	5858.0349857785
4	89702	28811.113627106048	5851.3979900774
4	89714	28813.965504302682	5846.4180541291
4	89731	28822.648723621958	5854.9997894676
4	89767	28837.542068666256	5840.4504313737
4	89774	28839.41745671984	5836.210384597
4	89781	28840.098193379251	5834.9239042606
4	89793	28844.206003013903	5835.562550679
4	89845	28862.208149571224	5844.6486441674
4	89862	28868.64523827468	5845.5111996375
4	89876	28872.50979425392	5847.8564546099
4	89885	28874.147961383921	5845.2976700321
4	89900	28879.782846811032	5842.2456444383
4	89914	28882.637318887266	5837.6388781393
4	89922	28887.258706576318	5839.8691061146
4	89941	28891.891042838512	5842.6930207421
4	89980	28907.620994493365	5850.3958360933
4	89987	28910.573677473348	5847.0583593797
4	89995	28914.030713102862	5846.5026456678
4	90000	28914.257319727505	5839.9043541744
4	90009	28917.628088738437	5841.9021566551
4	90168	28977.650321398035	5900.739167384
4	90173	28979.068921712271	5895.1586672558
4	90182	28980.859132071856	5896.7705570132
4	90190	28981.347325748796	5891.7994242979
4	90197	28982.032851418409	5886.6573687291
4	90211	28984.126081153055	5885.4356303429
4	90217	28987.273744291536	5886.9054405312
4	90224	28989.036863753524	5878.5279419691
4	90237	28998.224572481522	5887.3439734129
4	90295	29011.281746831601	5900.2101489689
4	90305	29016.088452968892	5892.6911533473
4	90317	29020.702573667824	5878.5194799466
4	90336	29023.911228268294	5880.9614710381
4	90351	29034.364772206843	5888.6994900908
4	90364	29037.683130248388	5874.2804720947
4	90376	29046.781099002077	5880.0333460342
4	90407	29052.825218160644	5885.4819368551
4	90435	29058.417641991777	5867.9417331624
4	90471	29068.025542095456	5870.0494912929
4	90478	29070.062385898624	5864.7713619786
4	90488	29071.463761651284	5864.1118710262
4	90495	29072.995936262911	5850.5259718139
4	90505	29075.760923972976	5831.3566595134
4	90522	29081.489305079806	5817.2531348353
4	90531	29087.924996522239	5819.8965960929
4	90550	29090.824457331608	5816.9184352777
4	90557	29091.735689364594	5807.099996232
4	90566	29096.491538472744	5811.7535648
4	90573	29097.58204250208	5806.8765715501
4	90613	29115.251781921279	5822.9332223444
4	90618	29116.19720057165	5816.5876537224
4	90623	29117.06721906418	5809.586249206
4	90636	29124.763371788172	5815.8236756421
4	90664	29130.63668785495	5819.5095128286
4	90676	29135.998918959452	5821.933976658
4	90686	29141.247386395557	5814.6241790277
4	90704	29149.054782074931	5816.8189031178
4	90717	29151.514418722802	5818.9549434075
4	90722	29152.128037175916	5799.7250838358
4	90729	29153.032282549615	5797.4797891646
4	90751	29159.882028332041	5803.0856746691
4	90758	29162.558939803533	5794.6786505652
4	90777	29171.914450217266	5785.1182006507
4	90782	29171.947573360873	5778.2215825943
4	90787	29174.155825801774	5776.6534680443
4	90797	29183.62555845529	5772.1581705796
4	90817	29190.172751385005	5769.3621794803
4	90894	29218.169407241548	5793.0359516368
4	90907	29224.72636079234	5781.5913684032
4	90956	29238.726791702763	5789.0897080486
4	91114	29282.47888447206	5821.0086831576
4	91125	29286.735117687634	5812.413947076
4	91130	29286.92247448686	5805.7849289723
4	91135	29287.406240003536	5802.8993769818
4	91143	29294.288105197526	5790.2861450613
4	91150	29296.883050641625	5791.3210862359
4	91157	29297.666716527838	5785.2180950846
4	91287	29350.218019734988	5834.0414853944
4	91293	29350.372168795278	5833.7324901205
4	91298	29352.654697308708	5834.3108153824
4	91305	29354.539042431533	5829.3128021575
4	91316	29363.375505880659	5827.7806894878
4	91325	29365.258028747578	5817.1013940162
4	91339	29366.620470604308	5817.7061595231
4	91353	29369.037432073474	5811.3492953465
4	91487	29404.94951985397	5846.6060063059
4	91509	29409.539970703324	5840.2596921644
4	91578	29428.352744780006	5855.5961413506
4	91583	29429.468262487871	5853.9749183496
4	91596	29436.243424282538	5858.5512887961
4	91601	29436.670245712585	5849.5026929842
4	91606	29438.377637881766	5844.0032769925
4	91613	29440.29229002012	5837.1618774907
4	91632	29450.018818949508	5845.3717628169
4	91647	29455.734593300106	5849.8244329854
4	91753	29484.922685063853	5867.83438893
4	91764	29490.007413454275	5872.0659075973
4	91794	29497.815014423152	5874.3670348463
4	91833	29503.847468367007	5861.0172328641
4	91838	29504.189074816921	5853.4637398848
4	91852	29513.257599636267	5858.3229203479
4	91864	29516.072557334099	5860.1691418898
4	91900	29529.859690926974	5859.1915119349
4	91954	29541.735148228685	5869.7737459201
4	91968	29547.668682707778	5861.6541019179
4	91974	29548.670368861296	5856.3483115591
4	91981	29552.909787598009	5840.4696938162
4	91991	29554.934835993291	5841.5147679208
4	92000	29557.983436547648	5840.9564974669
4	92067	29573.68832155353	5846.3560843316
4	92079	29585.702170067708	5856.2313277007
4	92111	29597.014733228032	5865.8507837373
4	92118	29598.409308787417	5858.4332308893
4	92149	29603.143009877599	5859.4497869612
4	92165	29616.146726234991	5871.3603305287
4	92192	29623.279055464791	5875.6539465851
4	92205	29627.156718490623	5875.838047051
4	92210	29628.645541228645	5876.8459387071
4	92215	29630.374954691649	5852.3171641738
4	92220	29633.902487257449	5853.8797032456
4	92230	29636.662341089269	5855.4811606916
4	92261	29645.945493201678	5856.3346172021
4	92268	29647.534300743801	5851.6237972186
4	92321	29660.853978898188	5862.6294873579
4	92333	29663.779413643159	5861.9146605169
4	92340	29668.265627078419	5865.8520525502
4	92359	29676.148929155595	5864.3691410155
4	92415	29698.955231172724	5879.0469508554
4	92447	29705.103607931578	5881.3246352876
4	92452	29706.309410409881	5877.2797448524
4	92462	29707.90934604293	5870.0630252022
4	92529	29725.13983440835	5886.2432596899
4	92546	29732.475419517373	5890.0492641044
4	92551	29735.840435491151	5889.7796866801
4	92566	29745.383475355337	5893.9953151749
4	92601	29758.68737641906	5904.1459785821
4	92676	29785.111853907675	5925.1587009925
4	92682	29785.98812599351	5921.8740693787
4	92687	29787.157569979352	5915.5309099601
4	92696	29791.109054128034	5918.402139643
4	92703	29792.98251197535	5906.993855221
4	92715	29802.42220528092	5915.1729754332
4	92720	29802.81358634568	5893.6915135518
4	92729	29805.145438413692	5892.8676348587
4	92740	29806.886018018224	5890.6382738115
4	92755	29819.361667929684	5891.7148835822
4	92785	29831.758561476341	5900.7208362526
4	92790	29831.985406654442	5898.3744728398
4	92798	29834.570118528916	5897.3285818484
4	92809	29837.989792404391	5893.2413056876
4	92816	29838.849306053111	5893.0891975614
4	92835	29843.330349238271	5883.4540873894
4	92842	29844.699024810748	5874.7356218511
4	92880	29857.418540584317	5887.325049541
4	92920	29867.272557643715	5877.1810088926
4	92925	29870.455818650157	5879.9601412386
4	92938	29879.087376443451	5888.0227257372
4	93064	29924.091951422403	5901.0674463261
4	93077	29932.003101788619	5907.0894367413
4	93130	29950.127946688751	5921.7583405486
4	93174	29965.806178802437	5928.4702325852

