version 2
run Third-n4-9-20191016-14:53:54-13684
attr configname Third-n4
attr datetime 20191016-14:53:54
attr experiment Third-n4
attr inifile omnetpp.ini
attr iterationvars ""
attr iterationvarsf ""
attr measurement ""
attr network org.omnetpp.queueing.Pizza
attr processid 13684
attr repetition 9
attr replication ""
attr resultdir results
attr runnumber 9
attr seedset 9
param **.PS.maxInventoriedPS 4
param **.U1.interArrivalTime exponential(4s)
param **.U2.interArrivalTime exponential(6s)
param **.PS.serviceTimeForInventoryU1 exponential(1.4s)
param **.PS.serviceTimeForInventoryU2 exponential(1.4s)
param **.PS.serviceTimeDirectU1 exponential(1.8s)
param **.PS.serviceTimeDirectU2 exponential(1.8s)
param **.PS.probabilityProducing 0.8
param **.CS.serviceTimeU1 exponential(2.3s)
param **.CS.serviceTimeU2 exponential(2.3s)

vector 0 Pizza.EntryQueueU1 queueLength:vector ETV
attr interpolationmode sample-hold
attr title "queue length, vector"
vector 1 Pizza.CS queueLength:vector ETV
attr interpolationmode sample-hold
attr title "queue length, vector"
vector 2 Pizza.EntryQueueU2 queueLength:vector ETV
attr interpolationmode sample-hold
attr title "queue length, vector"
vector 3 Pizza.sink lifeTime:vector ETV
attr interpolationmode none
attr title "lifetime of arrived jobs, vector"
attr unit s
vector 4 Pizza.sink lifeTimeU2:vector ETV
attr interpolationmode none
attr title "lifetime of arrived jobs, vector"
attr unit s
0	0	0	0
0	18	2.829327048168	1
0	22	3.694618899783	0
0	30	5.559378860882	1
0	35	10.395969530959	2
0	36	10.62958155989	1
0	46	17.557198031077	0
0	54	19.527378765509	1
0	55	19.841189031047	0
0	66	22.03433393858	1
0	68	22.475638382265	2
0	72	23.219204129849	3
0	77	26.16413034235	4
0	81	30.343539731392	3
0	87	30.358170476127	4
0	89	31.179098608686	5
0	92	35.609274158139	6
0	96	39.412499979729	5
0	102	41.409176704279	4
0	107	41.81038126878	3
0	113	43.387578953725	2
0	119	43.876191686594	3
0	121	48.658885830568	2
0	126	51.335414376803	1
0	132	52.049657605942	2
0	133	52.121003271394	1
0	148	62.090845748757	0
0	154	62.421411374656	1
0	157	63.20284575651	2
0	161	63.75234377906	3
0	163	64.0429945632	4
0	166	65.730693070858	3
0	172	65.784117083867	4
0	174	67.533466328458	5
0	175	68.482541290042	4
0	183	71.956803907173	3
0	189	73.038264040883	2
0	195	73.994413868314	3
0	196	74.003746212721	2
0	202	74.012711036582	3
0	208	75.589442815683	2
0	216	78.593133452524	1
0	222	79.243606141602	2
0	227	81.971142416008	3
0	228	82.756215836507	2
0	234	83.615447147338	3
0	239	84.19521611899	4
0	240	84.624778212805	3
0	248	86.496237784963	2
0	253	88.053645869995	1
0	259	91.620514533091	0
0	287	98.329315638223	1
0	289	98.67827805435	2
0	291	100.428934089786	3
0	292	100.86253194979	2
0	297	100.879350533595	1
0	302	101.12387493801	0
0	319	106.696713380966	1
0	323	108.136711430457	0
0	340	111.878225511056	1
0	341	116.755523028274	0
0	355	120.446168043808	1
0	358	121.652066381665	0
0	373	127.902027959319	1
0	374	128.755964969946	0
0	388	132.44638207635	1
0	390	132.764384974899	0
0	397	133.838939821627	1
0	399	134.13241905858	2
0	402	135.736568707073	1
0	410	139.176695813349	2
0	411	139.996752821202	1
0	416	140.07338204112	0
0	434	143.32058682541	1
0	439	144.968126458208	2
0	440	147.958147438732	1
0	446	150.466966467358	0
0	452	151.144825157408	1
0	454	155.015043908841	0
0	466	157.466061541902	1
0	467	157.593621996197	0
0	473	160.052066062575	1
0	478	163.364595692134	0
0	503	167.728373277949	1
0	512	171.819884667462	2
0	513	172.306963926845	1
0	521	175.391675340532	0
0	548	182.262693070645	1
0	556	183.612098939551	0
0	579	193.655062668369	1
0	580	193.90942336328	0
0	607	203.302760685731	1
0	609	203.638190256377	2
0	610	203.818672733319	1
0	616	204.542828907304	0
0	628	205.552420961236	1
0	630	205.882040805949	2
0	633	206.595366087683	3
0	635	207.322335951972	4
0	636	208.295949128472	3
0	642	208.903854193672	4
0	644	209.245663066652	3
0	649	209.777306540162	2
0	654	210.44467674039	1
0	659	210.614126743868	0
0	675	212.08871631352	1
0	680	216.262670544901	0
0	700	219.20669381243	1
0	702	219.407236143966	2
0	705	220.639204046106	3
0	706	222.211343481262	2
0	712	222.305344493428	3
0	714	222.530308463166	4
0	716	224.151950099917	5
0	720	226.256015751996	6
0	721	226.49056810004	5
0	727	227.292706134828	4
0	733	229.242963484335	3
0	738	229.800744159036	2
0	751	232.945778647488	1
0	756	235.533375880072	0
0	774	239.804781516742	1
0	780	244.064484288364	0
0	786	244.627003662529	1
0	787	244.932547343335	0
0	793	245.391805120162	1
0	802	248.116354748121	2
0	804	250.774747224316	1
0	810	254.080137516537	0
0	821	254.912606618673	1
0	825	255.917754092263	2
0	826	256.199669039972	1
0	832	256.217780009806	2
0	834	257.649753332257	1
0	840	257.910865875769	2
0	841	258.729647530689	1
0	848	260.165615498548	2
0	850	260.292875919112	3
0	856	261.583326316274	2
0	861	262.489213794139	1
0	869	263.870265956532	0
0	875	264.369393589603	1
0	878	267.59669446965	2
0	880	268.25504046068	3
0	882	268.369593429782	4
0	884	268.659920476522	5
0	887	270.458533577375	4
0	897	274.469858323198	3
0	906	275.04839991891	4
0	908	279.568104981326	5
0	911	284.221297991826	4
0	916	285.092243971366	3
0	922	285.199636964667	4
0	924	287.613262373609	5
0	925	288.47766368717	4
0	930	288.608776628276	3
0	937	290.00359651464	4
0	941	292.602370285471	3
0	946	292.756505449191	2
0	953	293.503740641787	3
0	955	295.662539464819	2
0	960	295.893848739245	1
0	965	296.12029792327	0
0	1007	311.394882176732	1
0	1009	312.584578036444	2
0	1011	312.83596235753	3
0	1012	312.899975494343	2
0	1019	313.272861422297	3
0	1020	313.67386044342	2
0	1027	315.678358999586	1
0	1036	320.707409347776	2
0	1037	322.370528023165	1
0	1044	324.130048199289	2
0	1046	325.3410517437	3
0	1047	326.342497297184	2
0	1054	327.190595384611	3
0	1055	327.516604098899	2
0	1061	328.383425674147	1
0	1066	329.697393019527	0
0	1098	336.031151910522	1
0	1099	337.526594539544	0
0	1109	339.892522900559	1
0	1111	340.270655099034	2
0	1112	343.156378024481	1
0	1118	343.2341717129	2
0	1120	343.309842343753	3
0	1122	343.500406491833	4
0	1125	346.999210348261	5
0	1127	350.7629284145	6
0	1128	351.123071763254	5
0	1134	351.646733128322	4
0	1144	358.703386098718	5
0	1146	359.936586702145	6
0	1147	361.196200530639	5
0	1153	365.926925992792	4
0	1159	366.255046281047	5
0	1161	366.373709748869	6
0	1162	366.508137402866	5
0	1168	367.658671340903	4
0	1174	368.166395857991	3
0	1179	369.304634385638	2
0	1184	371.859822890251	1
0	1190	372.44228798961	2
0	1191	374.911820511257	1
0	1199	375.427352732038	2
0	1200	376.593828332302	1
0	1206	378.393668481683	2
0	1207	379.983394681169	1
0	1217	383.432239600434	2
0	1221	386.524746987305	1
0	1226	386.565184677715	0
0	1230	387.121774198259	1
0	1234	392.496466047937	2
0	1235	393.400274002188	1
0	1239	394.454417981558	2
0	1244	395.15536264976	1
0	1250	397.401557327753	2
0	1252	398.987003651749	3
0	1254	399.408194229387	4
0	1262	403.496255831474	5
0	1264	406.135595794695	6
0	1267	409.274591114158	5
0	1275	410.87806703751	6
0	1278	411.908386795718	5
0	1285	414.10692644825	4
0	1290	415.303432251784	3
0	1295	415.819265887155	2
0	1302	420.489493085989	3
0	1304	421.037995373146	4
0	1305	422.187692558586	3
0	1311	424.430301033823	2
0	1319	425.13456145813	3
0	1320	426.282147798898	2
0	1328	428.330456279663	1
0	1334	428.4664447847	0
0	1349	432.422097209767	1
0	1351	432.907046705934	2
0	1356	434.652599974688	3
0	1357	435.684843866414	2
0	1363	437.619276137429	3
0	1365	437.908552949807	4
0	1368	444.298365142566	5
0	1369	446.27979182032	4
0	1375	446.396935744182	5
0	1378	446.952516883822	6
0	1379	448.182489267407	5
0	1385	449.197058841141	4
0	1391	449.790877374263	3
0	1396	450.044987428082	2
0	1403	452.859035970247	3
0	1404	454.356455051228	2
0	1409	454.597092173888	1
0	1415	456.092934205094	0
0	1452	464.696768871739	1
0	1455	465.968450729024	2
0	1458	470.756592705116	3
0	1460	471.555964356252	4
0	1462	472.292408993968	3
0	1470	474.378970152178	4
0	1471	476.180370913748	3
0	1478	477.172220497989	4
0	1479	477.340920169945	3
0	1485	478.764857831234	4
0	1488	479.851508571829	5
0	1490	479.915694968702	6
0	1491	481.580480015882	5
0	1497	482.838623273675	4
0	1502	483.243399364893	3
0	1507	483.327363712743	2
0	1517	486.38805431709	1
0	1522	486.407471640122	0
0	1545	490.962814812213	1
0	1547	492.130353442762	0
0	1563	501.513949034158	1
0	1569	503.744039340274	0
0	1583	506.051085218007	1
0	1586	508.053139015617	0
0	1592	509.950797164011	1
0	1593	510.380420316838	0
0	1607	513.192987764688	1
0	1611	514.09903998663	2
0	1619	516.189132034496	3
0	1620	517.33448261489	2
0	1631	522.387247053899	1
0	1637	523.206995902897	0
0	1650	524.654788854653	1
0	1651	524.928495675986	0
0	1660	527.127214889628	1
0	1662	527.150643227975	2
0	1664	527.656599575013	3
0	1666	530.206488340341	4
0	1672	533.370264138664	5
0	1676	534.0752589946	4
0	1682	534.581106167258	5
0	1684	535.393177705789	4
0	1690	536.786631007414	3
0	1699	539.294197893909	2
0	1706	541.05967458735	1
0	1711	541.263531369225	0
0	1717	541.305269187234	1
0	1720	546.680626880862	0
0	1749	554.104381629749	1
0	1751	554.104627717889	2
0	1752	554.390387543684	1
0	1758	554.465431487142	2
0	1762	557.090559000264	1
0	1768	557.431698800058	2
0	1769	558.154042262289	1
0	1778	559.61268373649	2
0	1781	561.311662492413	1
0	1790	562.010242839617	0
0	1797	562.390176804308	1
0	1799	565.086026636145	2
0	1800	565.443149100539	1
0	1808	566.4879574388	2
0	1812	568.455322379562	1
0	1817	568.459418522345	0
0	1829	569.184698328531	1
0	1831	569.279826701174	2
0	1837	573.705200371889	1
0	1846	578.899785342854	0
0	1876	592.774729087898	1
0	1879	594.194703027547	0
0	1905	600.194709188866	1
0	1907	600.262998821812	2
0	1912	604.233771507286	3
0	1913	605.87326716727	2
0	1919	606.954109948037	3
0	1920	608.073168145658	2
0	1926	608.106629274048	3
0	1929	612.391951471854	2
0	1938	613.662331209633	1
0	1943	614.183365981195	0
0	1965	619.507421358947	1
0	1967	620.275226847563	2
0	1975	624.794838708777	3
0	1977	629.524099476019	4
0	1979	629.860768351414	5
0	1981	630.22659935703	6
0	1982	633.163300912226	5
0	1990	635.030098317478	6
0	1992	635.912465577435	7
0	1997	636.897446745701	6
0	2003	637.178504805818	5
0	2010	637.590051970137	4
0	2016	638.031513186618	5
0	2020	640.36682060575	6
0	2021	642.004010865266	5
0	2028	643.280958603039	4
0	2041	644.990629668872	5
0	2042	645.067756305852	4
0	2049	646.10385174831	3
0	2055	646.173489904127	4
0	2057	649.595018707959	5
0	2062	651.969519503729	4
0	2068	652.171812036902	5
0	2069	652.827589497843	4
0	2074	652.985110748033	3
0	2080	654.149560329285	4
0	2082	654.729976903756	3
0	2088	655.494588528906	2
0	2094	656.452385461903	1
0	2100	657.101408499958	2
0	2101	657.298479677323	1
0	2109	658.58003566324	0
0	2121	659.402187562942	1
0	2122	659.833810772417	0
0	2136	662.688912038044	1
0	2137	663.078222497246	0
0	2149	664.621471118872	1
0	2153	666.616963921865	2
0	2155	667.424451829988	1
0	2163	670.401029951184	2
0	2168	673.532325325385	1
0	2173	674.171144356332	0
0	2188	677.09446832258	1
0	2189	678.381708264898	0
0	2195	679.01868822493	1
0	2197	680.435942012449	0
0	2210	682.14222686715	1
0	2211	685.253330285954	0
0	2225	687.266972057528	1
0	2229	690.393582759201	0
0	2238	691.445038412697	1
0	2240	691.453444331058	2
0	2243	694.785617058187	1
0	2249	695.108899120358	2
0	2252	696.076318771931	1
0	2257	696.239864131382	0
0	2277	703.377794386818	1
0	2279	704.391674238204	2
0	2283	705.687101185893	3
0	2284	706.084167269889	2
0	2290	708.080938594269	1
0	2296	708.321083128104	2
0	2298	709.833232567323	1
0	2304	710.377335668072	0
0	2321	713.548480422462	1
0	2323	715.430188558449	0
0	2332	716.744496344529	1
0	2342	723.611778387158	0
0	2353	725.821999470114	1
0	2358	729.845012245487	0
0	2365	730.426663272604	1
0	2367	730.824962139449	0
0	2373	731.097259457013	1
0	2375	732.487175956748	0
0	2386	733.377940285691	1
0	2388	735.014045680897	0
0	2402	735.903888446212	1
0	2403	736.278796582157	0
0	2414	737.877656313995	1
0	2415	738.182555410339	0
0	2434	740.84706971107	1
0	2440	742.498585267983	0
0	2465	747.384063252899	1
0	2466	747.421624613089	0
0	2480	752.505948798031	1
0	2484	753.895777534037	0
0	2512	761.964027841478	1
0	2514	762.983564711777	2
0	2516	763.511368985386	3
0	2523	767.763760310514	2
0	2531	770.02740579769	3
0	2532	770.347731796817	2
0	2537	770.423867559199	1
0	2544	775.339360731082	0
0	2552	775.794946764515	1
0	2555	778.000533290904	0
0	2564	781.247766721607	1
0	2565	782.673444155835	0
0	2583	787.707577905592	1
0	2589	789.85361493997	0
0	2596	790.698845215785	1
0	2597	792.512506068134	0
0	2614	794.570614715139	1
0	2615	795.066165113214	0
0	2627	796.097500558595	1
0	2628	796.508191109039	0
0	2634	796.578721168095	1
0	2636	799.174726684862	0
0	2642	799.536354144435	1
0	2646	800.473073334166	0
0	2658	801.499663289007	1
0	2663	804.380633137032	0
0	2670	805.441693629092	1
0	2671	805.906098818006	0
0	2696	815.69722359747	1
0	2699	815.856799332169	0
0	2713	818.566298218975	1
0	2720	823.893240205861	2
0	2722	827.397751910955	1
0	2729	829.645012905531	2
0	2730	830.935262216234	1
0	2736	832.008686529893	0
0	2742	832.148861734097	1
0	2743	832.343736879492	0
0	2771	839.349715954568	1
0	2773	839.675809050731	2
0	2778	842.614758800217	1
0	2785	843.276927456662	0
0	2793	846.272572797878	1
0	2794	846.339717350401	0
0	2830	854.524351351604	1
0	2831	855.215370610315	0
0	2837	855.949931360995	1
0	2840	857.566290044405	0
0	2853	861.809257485563	1
0	2855	862.577706287956	2
0	2856	862.850241450785	1
0	2864	864.374152840384	2
0	2866	865.080447218609	1
0	2872	865.484958695761	2
0	2875	866.561542326273	1
0	2881	866.902861162234	2
0	2885	869.236378145436	1
0	2895	873.713428730027	0
0	2917	878.013019865999	1
0	2919	878.435590590601	0
0	2929	884.159976079656	1
0	2930	888.615512932022	0
0	2952	895.902022361847	1
0	2955	897.366385042874	0
0	2961	898.445334212839	1
0	2963	898.505800223202	2
0	2966	898.647342669307	3
0	2970	900.769327921724	2
0	2976	900.79508997708	3
0	2984	905.598097531491	2
0	2990	906.636884491984	1
0	2995	907.682066041586	0
0	3026	923.879364884193	1
0	3027	924.973200887502	0
0	3034	925.314270558224	1
0	3038	925.722446650293	2
0	3039	925.916140103525	1
0	3046	928.698459641242	2
0	3047	929.672633627682	1
0	3053	931.75525467426	0
0	3068	934.959168879722	1
0	3070	935.055446299286	2
0	3073	937.04434534073	1
0	3079	937.199969609672	2
0	3081	938.502509227848	3
0	3084	941.326998805426	2
0	3091	947.067880642272	1
0	3096	948.19327040006	0
0	3105	949.634971132014	1
0	3108	950.378921690558	0
0	3116	954.487510807636	1
0	3117	955.531213510999	0
0	3126	957.437819929152	1
0	3127	959.849439644842	0
0	3134	964.10904996525	1
0	3135	964.464702054996	0
0	3158	971.705838508246	1
0	3159	973.439679410721	0
0	3173	978.853856060002	1
0	3174	979.254011401982	0
0	3185	980.313375761148	1
0	3186	980.33752084585	0
0	3192	982.118374190183	1
0	3194	982.519088856713	2
0	3195	982.639560364986	1
0	3201	984.976144330312	0
0	3208	985.750615404425	1
0	3213	989.072543675903	0
0	3227	991.804446628656	1
0	3228	993.73350272799	0
0	3239	996.827188825719	1
0	3244	1000.130375473376	0
0	3260	1005.250904738959	1
0	3263	1007.783609516646	0
0	3269	1008.500612075415	1
0	3270	1009.324136466071	0
0	3294	1017.803458238878	1
0	3299	1020.223425521981	2
0	3301	1023.08490013739	3
0	3302	1023.294890961778	2
0	3309	1025.574301995811	3
0	3310	1032.461937930743	2
0	3315	1033.531364834469	1
0	3321	1033.768452417706	0
0	3337	1035.339589127326	1
0	3339	1036.528742927551	0
0	3355	1039.491555263921	1
0	3361	1044.714011238095	0
0	3376	1050.544355737591	1
0	3381	1053.923437578054	2
0	3383	1054.966278321296	1
0	3390	1057.41886104121	0
0	3402	1058.464637738069	1
0	3405	1060.090413259319	2
0	3407	1060.898816551597	3
0	3408	1061.332972490701	2
0	3419	1066.087998783399	3
0	3422	1067.042888553721	2
0	3427	1067.609793066454	1
0	3432	1068.034334309106	0
0	3450	1071.134608648959	1
0	3451	1071.818892380779	0
0	3463	1073.156726817682	1
0	3465	1073.591147449415	0
0	3492	1082.822681520571	1
0	3494	1083.23737267395	2
0	3497	1087.755826835599	1
0	3502	1087.857372836015	0
0	3517	1091.41174230137	1
0	3519	1091.492615566879	2
0	3522	1092.308675546006	1
0	3527	1092.375022701506	0
0	3546	1099.860918111932	1
0	3547	1100.629035867848	0
0	3553	1100.74904284601	1
0	3558	1101.127715816624	2
0	3559	1102.332628653472	1
0	3566	1102.848229054261	0
0	3584	1109.638648208978	1
0	3588	1110.893206211083	2
0	3593	1115.434034518239	1
0	3600	1117.034322339316	2
0	3602	1119.424281559524	3
0	3603	1119.863824973408	2
0	3609	1120.310677443651	3
0	3613	1122.732957033488	2
0	3619	1123.24851529612	1
0	3625	1123.296569550048	2
0	3629	1127.124196595325	1
0	3634	1127.288559395258	0
0	3641	1128.791005957077	1
0	3642	1130.224658745729	0
0	3659	1132.238067520059	1
0	3660	1133.161507213251	0
0	3670	1135.91267591278	1
0	3673	1136.682095119458	2
0	3677	1137.494000984492	3
0	3678	1137.640413446832	2
0	3684	1138.053201368674	1
0	3692	1139.070373863536	2
0	3693	1139.947737189939	1
0	3698	1140.309306993964	0
0	3732	1151.86525728783	1
0	3733	1152.772778107181	0
0	3753	1159.995703482813	1
0	3761	1174.276472928913	2
0	3762	1174.385985034602	1
0	3769	1176.96962550706	2
0	3770	1179.795109168923	1
0	3782	1184.464693957351	2
0	3783	1184.806084675442	1
0	3788	1185.337688653062	0
0	3826	1194.33556138466	1
0	3827	1196.323829048932	0
0	3873	1214.920986807176	1
0	3874	1215.198110257252	0
0	3880	1217.178064614145	1
0	3881	1217.387061297801	0
0	3909	1226.39431909698	1
0	3910	1226.527422760569	0
0	3916	1227.112772548537	1
0	3919	1228.175196522956	2
0	3920	1228.214564694304	1
0	3929	1231.048395567424	2
0	3930	1231.438337613285	1
0	3935	1231.915150051069	0
0	3941	1232.825649031451	1
0	3943	1233.341763871989	0
0	3949	1233.634556319782	1
0	3950	1233.71464606753	0
0	3956	1234.722206259154	1
0	3962	1237.905036954469	0
0	3968	1239.099444410482	1
0	3970	1240.240561566942	2
0	3972	1240.474823373655	3
0	3973	1242.033257761573	2
0	3990	1247.492874626279	1
0	3996	1250.184306938384	0
0	4028	1259.452475577674	1
0	4031	1261.575257372304	0
0	4044	1269.722875886461	1
0	4046	1270.283213135348	0
0	4055	1272.914629518199	1
0	4057	1273.634202111205	2
0	4059	1274.027554840495	3
0	4060	1275.741929640937	2
0	4069	1278.436719834376	3
0	4070	1279.607632598837	2
0	4075	1283.337696979112	1
0	4080	1284.079751114182	0
0	4093	1286.938053935017	1
0	4095	1286.961295044593	2
0	4097	1286.975843614728	3
0	4098	1287.031274206214	2
0	4104	1287.576102591744	3
0	4106	1288.161582011747	4
0	4107	1288.270517413295	3
0	4112	1288.465838164248	2
0	4118	1289.408916368463	3
0	4121	1293.200027809953	2
0	4131	1296.723319630446	1
0	4136	1297.766065605107	0
0	4142	1299.572331908801	1
0	4147	1302.169150268353	2
0	4149	1305.362023812682	3
0	4150	1305.452295211772	2
0	4156	1308.71769645569	1
0	4166	1310.173904222053	0
0	4197	1323.163232885756	1
0	4198	1325.469984996194	0
0	4210	1332.493674600987	1
0	4212	1332.501500659274	2
0	4213	1332.861627927924	1
0	4219	1333.425789649535	0
0	4243	1348.44273151145	1
0	4244	1349.501350247245	0
0	4250	1349.864612049613	1
0	4251	1349.912124477683	0
0	4260	1350.107061384187	1
0	4265	1352.095773063998	2
0	4267	1354.548195070434	1
0	4274	1357.846037647648	2
0	4275	1358.786596485675	1
0	4280	1359.913182032241	0
0	4287	1360.845372278234	1
0	4289	1361.882856225374	2
0	4291	1362.252543421151	3
0	4292	1362.597176555689	2
0	4299	1363.366833161739	3
0	4300	1363.46111459958	2
0	4306	1363.577441563886	1
0	4312	1363.893912337782	0
0	4319	1364.648542443242	1
0	4321	1366.352347609359	2
0	4322	1366.447910863061	1
0	4330	1367.291228967412	0
0	4367	1375.213132454499	1
0	4371	1380.414588311692	2
0	4372	1380.891976793427	1
0	4378	1382.472573962997	0
0	4392	1395.05409802833	1
0	4394	1395.104391278729	2
0	4395	1395.928978698524	1
0	4400	1398.337970485439	0
0	4409	1399.264360544242	1
0	4410	1403.613402439645	0
0	4429	1409.158841347686	1
0	4431	1410.864619912752	2
0	4432	1413.357707810496	1
0	4438	1415.545960958797	0
0	4444	1415.784326171913	1
0	4446	1416.237512711233	0
0	4457	1418.143176686996	1
0	4458	1418.220384100962	0
0	4467	1422.493767021945	1
0	4468	1423.077621980593	0
0	4474	1424.050341117575	1
0	4475	1425.122861563617	0
0	4482	1425.537060401586	1
0	4485	1426.686510748494	0
0	4491	1426.928962771478	1
0	4493	1427.77487106186	2
0	4494	1428.45062338059	1
0	4499	1428.563838076664	0
0	4503	1429.125809667084	1
0	4509	1432.60435155894	0
0	4522	1436.464108064886	1
0	4524	1436.588344227045	2
0	4527	1440.332344377533	1
0	4534	1442.550921438588	0
0	4575	1454.537190472479	1
0	4580	1457.086344815753	0
0	4609	1463.417623159699	1
0	4611	1465.199415857825	2
0	4613	1466.376462733213	3
0	4614	1468.348434577349	2
0	4620	1469.009308375053	3
0	4622	1469.317167205981	4
0	4623	1469.528681196228	3
0	4628	1470.213699402344	2
0	4633	1470.705656851418	1
0	4638	1470.742049123913	0
0	4644	1474.473427313267	1
0	4646	1475.329473844941	0
0	4661	1477.387822064254	1
0	4662	1478.275761133103	0
0	4668	1478.713869820632	1
0	4671	1481.332045211741	0
0	4682	1486.959205063462	1
0	4686	1488.704022965744	2
0	4689	1490.413811645805	1
0	4695	1491.900575020999	2
0	4699	1495.226677184148	3
0	4700	1495.40761612259	2
0	4706	1495.876311530669	1
0	4711	1496.056937224655	0
0	4729	1501.658738307957	1
0	4731	1501.728610974573	2
0	4732	1502.230878569529	1
0	4738	1502.384761305759	2
0	4739	1502.672075498739	1
0	4745	1502.703383350499	2
0	4749	1505.098012056058	1
0	4755	1505.856828004368	2
0	4756	1507.262258160272	1
0	4765	1509.882265915175	2
0	4766	1509.940514117341	1
0	4776	1510.300833156764	2
0	4779	1511.611291474663	3
0	4780	1511.896826463481	2
0	4787	1512.85590989781	1
0	4794	1516.001004128812	2
0	4797	1517.172962816715	3
0	4798	1518.896948732651	2
0	4807	1520.871344325585	3
0	4808	1520.940173420805	2
0	4814	1521.863582898214	1
0	4819	1522.675709523544	0
0	4872	1540.458154352389	1
0	4874	1542.163666521331	2
0	4876	1542.739669129504	3
0	4879	1545.388864026674	2
0	4885	1545.455826090125	3
0	4887	1546.47789705658	4
0	4889	1547.419957646817	3
0	4896	1549.579612405367	4
0	4897	1550.870613054474	3
0	4908	1552.903154645639	4
0	4909	1553.173734766507	3
0	4923	1554.840490075593	4
0	4925	1555.651874557839	5
0	4928	1557.137203616795	6
0	4930	1557.862000283848	7
0	4931	1558.5794355787	6
0	4939	1560.383221032845	7
0	4946	1564.996460148403	6
0	4951	1565.328698388456	5
0	4958	1565.962127069641	6
0	4960	1566.203515330364	7
0	4973	1574.255169728224	6
0	4981	1575.565718702832	5
0	4987	1578.847250920088	4
0	4993	1579.223682475957	5
0	4994	1580.151954336422	4
0	5001	1582.862613215534	3
0	5008	1584.443589704867	4
0	5010	1585.361133218894	5
0	5011	1585.828529547033	4
0	5017	1585.871144332753	5
0	5018	1586.536255351131	4
0	5026	1589.416375522272	3
0	5033	1592.136578369728	4
0	5035	1593.591317886511	3
0	5040	1597.747488910481	2
0	5048	1600.103867981699	3
0	5051	1603.30046328311	2
0	5057	1604.808858668473	3
0	5059	1605.734683380519	2
0	5065	1605.851283957866	3
0	5066	1607.471800300468	2
0	5071	1608.54825307463	1
0	5077	1609.111581267	2
0	5078	1609.197128496597	1
0	5084	1611.18618835799	2
0	5088	1616.48150555724	3
0	5093	1619.463392911007	2
0	5103	1623.135710776573	1
0	5114	1627.613718395772	2
0	5115	1627.750894478823	1
0	5120	1628.148174637656	0
0	5138	1634.093301105504	1
0	5139	1635.177191781383	0
0	5149	1636.440158050968	1
0	5150	1637.042766708525	0
0	5167	1638.264215523942	1
0	5169	1640.287354121222	0
0	5226	1662.410429813463	1
0	5227	1663.385133530174	0
0	5238	1666.36025695591	1
0	5241	1667.595750844382	2
0	5242	1668.585563504453	1
0	5251	1671.519668955802	0
0	5271	1680.450573380257	1
0	5274	1683.328595635746	0
0	5281	1684.79950611897	1
0	5285	1686.298918525817	2
0	5286	1687.557241478669	1
0	5293	1689.939638909891	2
0	5294	1690.563736043655	1
0	5305	1700.926011011052	2
0	5307	1702.23522246418	3
0	5308	1704.392271193273	2
0	5313	1704.444892643265	1
0	5320	1706.926149020496	0
0	5330	1707.663099211913	1
0	5332	1710.648964272777	2
0	5335	1712.491582782013	1
0	5340	1712.61228238019	0
0	5346	1712.902250655452	1
0	5351	1715.989425714809	0
0	5358	1718.453485871645	1
0	5360	1718.806872393358	0
0	5391	1727.573671911937	1
0	5396	1730.468775478706	0
0	5408	1735.652274311203	1
0	5411	1737.026794766546	0
0	5419	1737.560371294473	1
0	5422	1739.509588793456	2
0	5424	1742.781343085625	3
0	5425	1743.441433215039	2
0	5431	1744.232964572712	1
0	5438	1749.989235448906	0
0	5450	1753.052080153569	1
0	5451	1753.071582353909	0
0	5462	1753.448983635537	1
0	5464	1755.312356410754	0
0	5470	1755.568172584792	1
0	5472	1757.744246077654	0
0	5478	1758.07376476978	1
0	5483	1759.568958141275	2
0	5485	1764.519721932913	3
0	5486	1764.649586335527	2
0	5492	1765.0405638334	1
0	5497	1766.152017053443	0
0	5512	1768.71226801827	1
0	5513	1769.171381594101	0
0	5526	1772.832563999039	1
0	5527	1774.168807314278	0
0	5541	1778.396753935254	1
0	5542	1778.652111950399	0
0	5551	1781.833181228636	1
0	5552	1783.212696631352	0
0	5559	1784.548802269828	1
0	5560	1787.303450479711	0
0	5566	1790.363532094764	1
0	5568	1792.180301361066	0
0	5582	1795.865871380812	1
0	5584	1795.957170767203	2
0	5585	1796.410133098414	1
0	5591	1801.141740637242	0
0	5599	1801.91096048949	1
0	5600	1801.98510554325	0
0	5617	1805.350649676633	1
0	5619	1805.781740936848	2
0	5623	1809.564723954201	1
0	5628	1810.036664687382	0
0	5635	1812.004808384956	1
0	5639	1813.849026104945	0
0	5658	1817.486703717291	1
0	5660	1818.895996461537	2
0	5662	1820.781691622584	3
0	5663	1820.907212652414	2
0	5670	1821.839306511277	3
0	5671	1822.217311430953	2
0	5678	1824.001782093152	3
0	5684	1824.874281021123	2
0	5691	1826.538061309365	3
0	5693	1826.603024646731	4
0	5694	1827.692931343336	3
0	5700	1832.538808750182	2
0	5706	1834.727060722618	1
0	5712	1835.111420095723	2
0	5713	1836.399681080065	1
0	5721	1838.169400316007	2
0	5723	1838.716315282947	3
0	5729	1841.221706934444	4
0	5730	1841.456287677211	3
0	5741	1843.931243735662	4
0	5743	1844.224890671038	5
0	5745	1844.814803271878	6
0	5746	1844.89780053039	5
0	5753	1846.923002065895	4
0	5760	1847.255916829798	5
0	5762	1848.075493014382	4
0	5767	1848.1735975439	3
0	5775	1849.786683632952	4
0	5777	1850.413283677058	3
0	5784	1852.32289874345	2
0	5789	1854.064356297579	1
0	5794	1855.086496345744	0
0	5841	1866.247082009705	1
0	5848	1867.467161502224	2
0	5850	1870.205174811597	3
0	5852	1870.796071070839	4
0	5854	1870.808137536092	5
0	5855	1870.815503279174	4
0	5860	1871.366537611675	3
0	5865	1871.661740762975	2
0	5870	1871.855680411548	1
0	5877	1872.537896833503	2
0	5879	1873.268890243427	3
0	5881	1873.485200492742	4
0	5882	1873.955625197565	3
0	5887	1874.202575133354	2
0	5893	1875.019523504088	1
0	5899	1875.942602647376	2
0	5901	1877.217216469449	1
0	5910	1877.843516601091	2
0	5912	1878.817996122705	3
0	5915	1879.971962068407	4
0	5916	1881.562723867361	3
0	5923	1882.109904420286	4
0	5927	1884.803561701942	5
0	5928	1886.041732046191	4
0	5933	1886.249298505173	3
0	5943	1894.391019334913	2
0	5951	1895.629588094486	1
0	5958	1896.322891182175	2
0	5959	1898.436690598963	1
0	5964	1898.58193370228	0
0	5993	1903.806044737002	1
0	5994	1905.70102628782	0
0	6009	1908.262411364851	1
0	6014	1910.160476426513	0
0	6025	1913.340468683197	1
0	6027	1913.797161365544	2
0	6028	1914.51218110218	1
0	6035	1915.418005904355	2
0	6037	1917.564128001109	3
0	6039	1919.188753841039	4
0	6043	1921.50938087301	5
0	6045	1921.548526385598	6
0	6051	1926.585641795835	7
0	6052	1926.632598378483	6
0	6058	1927.349467868597	5
0	6063	1927.385505106598	4
0	6069	1927.583188243777	5
0	6070	1928.330270854275	4
0	6076	1928.481120238023	5
0	6080	1932.496768071611	4
0	6087	1934.015566773683	3
0	6094	1935.159529026796	4
0	6096	1935.453107407853	5
0	6097	1937.807159384392	4
0	6103	1938.864359388357	3
0	6108	1939.672797436611	2
0	6113	1940.932766680368	1
0	6121	1942.886573219097	2
0	6123	1943.693521616516	3
0	6128	1945.99526014508	2
0	6134	1948.493645438348	1
0	6141	1948.604379894347	2
0	6142	1950.087457086437	1
0	6148	1951.762289829715	0
0	6172	1957.827025008809	1
0	6173	1957.993270479769	0
0	6192	1961.447135133008	1
0	6199	1965.130698607931	2
0	6200	1965.414217605549	1
0	6205	1966.143460264541	0
0	6239	1977.058021535447	1
0	6240	1977.553836141803	0
0	6271	1989.083811174136	1
0	6275	1990.887346550746	2
0	6277	1993.085564435057	3
0	6278	1993.2882068416	2
0	6285	1995.534581520661	3
0	6286	1996.082117203763	2
0	6291	1996.128518761552	1
0	6297	1998.563471396388	0
0	6310	2001.161670839618	1
0	6311	2001.414799180581	0
0	6329	2006.12568922004	1
0	6331	2009.153996222139	2
0	6336	2011.069401568634	1
0	6343	2011.482653449793	2
0	6345	2011.845560311926	3
0	6347	2012.051585595492	4
0	6348	2012.761103625507	3
0	6353	2013.9827154247	2
0	6359	2016.347855177573	3
0	6361	2016.597882759283	4
0	6366	2019.000375481259	3
0	6373	2021.707135341192	4
0	6374	2026.277496068757	3
0	6382	2028.198929490223	4
0	6383	2029.097589887463	3
0	6388	2030.590999006553	2
0	6394	2030.682397601534	3
0	6395	2031.39585023787	2
0	6411	2035.003243685068	3
0	6413	2035.092314066565	4
0	6414	2035.38464930026	3
0	6422	2037.21073788892	4
0	6423	2038.341360377567	3
0	6430	2039.249437742109	2
0	6435	2041.182599807608	1
0	6441	2042.741537422145	2
0	6448	2044.054613894335	3
0	6452	2045.012160013733	2
0	6457	2046.419754746914	1
0	6462	2047.23061482908	0
0	6474	2053.06732416825	1
0	6475	2053.394205841108	0
0	6491	2056.173762941861	1
0	6493	2056.692577027577	2
0	6499	2058.698830488518	3
0	6500	2059.116892767692	2
0	6507	2061.660358182043	3
0	6509	2062.867996225259	2
0	6516	2067.032916961618	1
0	6525	2070.450635673663	0
0	6537	2072.178637003902	1
0	6538	2072.288986909502	0
0	6560	2079.553250971853	1
0	6562	2080.957062339076	2
0	6563	2081.090403924925	1
0	6570	2082.687694361283	2
0	6572	2085.088678772918	3
0	6576	2086.632545614868	4
0	6577	2086.791566698075	3
0	6585	2088.332406491159	4
0	6587	2089.151084903609	5
0	6589	2089.771654205597	6
0	6590	2091.372241522882	5
0	6595	2091.806223880179	4
0	6601	2092.266117169406	5
0	6607	2094.15070489063	4
0	6614	2097.752932876358	5
0	6616	2101.54747471504	6
0	6617	2102.675304336109	5
0	6626	2103.55905195917	6
0	6629	2105.247782292926	7
0	6630	2106.574463917066	6
0	6637	2107.602103936631	5
0	6642	2107.874660844974	4
0	6648	2108.427905277853	3
0	6654	2110.58185292284	2
0	6665	2114.88634968871	1
0	6671	2115.224850329148	2
0	6672	2116.770429606483	1
0	6681	2119.522508017482	0
0	6695	2123.044942707418	1
0	6697	2123.226489546233	2
0	6698	2123.243585217107	1
0	6704	2123.662962482945	2
0	6705	2124.323152117772	1
0	6711	2124.938145279397	2
0	6714	2126.177330026575	3
0	6715	2126.920762702416	2
0	6722	2138.419437570376	1
0	6730	2138.895147971346	2
0	6731	2140.652949517619	1
0	6738	2142.799061494966	0
0	6772	2154.123767898194	1
0	6776	2155.006767771428	2
0	6777	2155.33421757947	1
0	6782	2155.662739152176	0
0	6796	2160.827475010855	1
0	6798	2162.877203036762	2
0	6800	2164.900805463038	3
0	6802	2170.20160818357	4
0	6804	2170.771839865662	5
0	6807	2172.946324348553	4
0	6812	2172.958678899097	3
0	6817	2174.066914999302	2
0	6821	2174.573792313712	3
0	6824	2175.323165156917	2
0	6830	2177.83115451568	3
0	6832	2178.232714339396	4
0	6842	2184.549846617747	5
0	6848	2186.991270737322	4
0	6856	2189.513892928893	5
0	6857	2190.428191878958	4
0	6863	2191.641862194164	3
0	6868	2192.007500426063	2
0	6875	2192.673382984769	3
0	6876	2192.766557746934	2
0	6881	2192.896879242327	1
0	6886	2193.844050187045	0
0	6892	2195.101478044555	1
0	6893	2195.695299690969	0
0	6900	2197.611273159073	1
0	6903	2199.747156347454	0
0	6913	2203.4071790605	1
0	6916	2208.019135461045	0
0	6936	2210.720730146796	1
0	6940	2211.737061356297	2
0	6941	2212.948064355576	1
0	6950	2217.671755610325	2
0	6951	2218.357185907927	1
0	6958	2218.773354413767	0
0	6990	2230.43598926443	1
0	6993	2235.010747786434	0
0	7009	2237.095192136388	1
0	7011	2237.263325339396	2
0	7014	2238.613007117596	1
0	7020	2239.916011321719	2
0	7028	2243.378571826468	3
0	7034	2244.883510266992	4
0	7036	2245.002499326793	5
0	7039	2245.947854828086	4
0	7044	2247.384544226188	3
0	7050	2248.03176993338	4
0	7051	2249.25571459788	3
0	7056	2249.394446807374	2
0	7064	2251.580143391387	1
0	7070	2251.793568977893	2
0	7073	2253.046807147538	3
0	7075	2253.827407764408	4
0	7078	2254.721329909862	3
0	7083	2254.79215600734	2
0	7091	2256.141588871267	3
0	7092	2256.486804381272	2
0	7100	2258.443420312123	3
0	7105	2261.707561466034	2
0	7113	2262.364656431596	3
0	7115	2262.646472937539	4
0	7117	2263.22018334567	3
0	7122	2264.488882868861	2
0	7130	2266.680974067744	1
0	7135	2267.321583638802	0
0	7144	2270.913177457805	1
0	7146	2271.717053232728	2
0	7149	2274.385557149327	1
0	7156	2274.928885438818	0
0	7164	2276.111790806048	1
0	7165	2276.369318433612	0
0	7178	2277.806263689703	1
0	7179	2284.536150335175	0
0	7210	2297.527711390843	1
0	7211	2297.895738112629	0
0	7225	2301.287695137456	1
0	7229	2304.933553283361	2
0	7230	2305.012778600838	1
0	7235	2305.269263937137	0
0	7253	2311.386591592308	1
0	7256	2313.229299181899	0
0	7262	2313.299707426169	1
0	7265	2314.396466676419	2
0	7270	2316.056573054616	3
0	7273	2318.475082203031	2
0	7280	2320.503935757691	1
0	7286	2321.315002669968	0
0	7293	2322.130784923239	1
0	7295	2324.198425114685	0
0	7317	2329.799464902027	1
0	7318	2330.699798262863	0
0	7332	2335.168187493502	1
0	7334	2337.163440868056	2
0	7338	2337.83631113313	3
0	7340	2337.851154741391	4
0	7343	2339.332374248395	5
0	7344	2339.84970552575	4
0	7353	2343.305311225787	3
0	7358	2344.138223701919	2
0	7365	2346.505873270749	3
0	7368	2346.680338511314	4
0	7371	2348.272373389539	5
0	7372	2348.495199876789	4
0	7377	2348.498260237454	3
0	7382	2348.720218173691	2
0	7388	2349.769342270532	1
0	7399	2351.895531788128	0
0	7428	2358.582770970236	1
0	7434	2362.326651528665	2
0	7436	2362.407531476998	3
0	7437	2363.133122079707	2
0	7442	2363.573685630796	1
0	7447	2364.081347060846	0
0	7473	2372.244887521351	1
0	7476	2373.178952446146	0
0	7482	2373.305593419725	1
0	7484	2373.338497313926	2
0	7485	2373.884142777412	1
0	7495	2378.220823104018	0
0	7502	2378.953143442532	1
0	7505	2379.670174362591	0
0	7511	2379.996443667535	1
0	7513	2381.47570326128	0
0	7519	2381.548780233257	1
0	7522	2383.998717978752	0
0	7535	2394.489784530457	1
0	7537	2394.751298131224	2
0	7538	2395.158265553998	1
0	7543	2396.647111508104	0
0	7549	2396.70099828446	1
0	7551	2396.914854573059	0
0	7558	2399.677687731862	1
0	7560	2401.625132990709	0
0	7579	2404.699229539262	1
0	7581	2407.577568822892	2
0	7587	2410.872765333908	3
0	7590	2413.247774952466	2
0	7597	2413.748496671775	1
0	7602	2414.027063169981	0
0	7610	2414.446389545705	1
0	7611	2414.772835163766	0
0	7624	2417.217397084876	1
0	7625	2417.831803643505	0
0	7637	2419.413761222633	1
0	7638	2420.264332252997	0
0	7659	2429.086177959195	1
0	7660	2430.06147057446	0
0	7666	2430.215569092513	1
0	7668	2430.466873974557	0
0	7712	2442.596268583268	1
0	7716	2446.749659003123	2
0	7717	2447.300423395553	1
0	7724	2447.887219354282	0
0	7735	2449.049979618265	1
0	7740	2452.919468636192	0
0	7747	2456.493856906535	1
0	7748	2457.220496915858	0
0	7768	2464.259217902255	1
0	7771	2465.446042110182	0
0	7792	2467.205984159238	1
0	7793	2467.458450016415	0
0	7806	2468.660581755361	1
0	7810	2475.787631795693	0
0	7817	2477.682727688873	1
0	7818	2480.555197706915	0
0	7830	2488.52633381752	1
0	7831	2488.589971368724	0
0	7852	2494.94938385686	1
0	7854	2495.145920245221	2
0	7855	2495.21834822263	1
0	7861	2495.666313832427	2
0	7864	2497.6071674759	3
0	7865	2498.123528402619	2
0	7873	2503.383282165619	3
0	7875	2504.307511957236	4
0	7877	2505.116302771178	5
0	7878	2505.383039980034	4
0	7884	2507.501375479497	3
0	7891	2508.065820439538	2
0	7897	2508.092891646329	3
0	7899	2508.54847043797	4
0	7901	2509.362411314314	3
0	7906	2509.524740734967	2
0	7913	2510.311877863994	1
0	7919	2510.352722216571	2
0	7922	2510.799540676992	1
0	7928	2511.028189797206	2
0	7929	2511.053305613928	1
0	7937	2513.412097785974	0
0	7946	2515.288259894634	1
0	7947	2516.766367278219	0
0	7963	2519.137486041458	1
0	7966	2519.542493711243	0
0	7979	2524.501732293906	1
0	7980	2524.51949339457	0
0	8007	2532.466034986992	1
0	8008	2532.662860365681	0
0	8015	2533.177025122498	1
0	8019	2539.237409826089	2
0	8020	2539.499515121583	1
0	8027	2540.589797494375	2
0	8029	2541.65908670588	3
0	8034	2544.140408095022	2
0	8039	2544.693679072593	1
0	8045	2546.009717087671	0
0	8057	2549.330027545301	1
0	8061	2553.128156290964	0
0	8067	2553.546163245781	1
0	8068	2554.239691583136	0
0	8084	2557.263807283965	1
0	8085	2557.377873698036	0
0	8124	2567.326063415393	1
0	8126	2567.511684029321	2
0	8127	2568.491037067376	1
0	8132	2568.558683344083	0
0	8157	2577.582405449293	1
0	8160	2578.275533282695	0
0	8174	2581.419668106147	1
0	8175	2581.851303234804	0
0	8186	2584.777902023803	1
0	8190	2585.263099112147	2
0	8192	2586.238963913002	3
0	8193	2587.973463910771	2
0	8200	2588.780191818163	1
0	8205	2589.479328050369	0
0	8218	2594.010667034866	1
0	8222	2596.469240913072	2
0	8224	2597.090132496672	3
0	8228	2598.953611454605	4
0	8234	2604.26451044733	5
0	8236	2605.312419341513	4
0	8241	2605.328862682129	3
0	8247	2605.658280049845	4
0	8253	2611.691295944321	3
0	8259	2613.243671729593	2
0	8265	2613.573555570964	3
0	8267	2614.161871093374	2
0	8272	2614.342812469265	1
0	8277	2614.861763838559	0
0	8283	2615.382226439454	1
0	8285	2617.355739466659	0
0	8306	2622.769755882634	1
0	8310	2626.09105470847	2
0	8314	2628.352213357404	3
0	8315	2630.108919101565	2
0	8320	2630.671191886421	1
0	8325	2630.823403898648	0
0	8334	2634.860254342066	1
0	8338	2639.341614938725	0
0	8358	2643.347684079511	1
0	8359	2646.072843790066	0
0	8379	2653.626391514249	1
0	8384	2658.413887572355	0
0	8395	2660.519177396377	1
0	8397	2661.943924005384	0
0	8427	2669.546847944179	1
0	8431	2672.571424238422	2
0	8432	2672.780276506679	1
0	8438	2673.561057975314	2
0	8441	2674.810295346551	1
0	8448	2675.879614363853	0
0	8454	2678.103636074931	1
0	8458	2679.517021971685	0
0	8476	2683.246306316764	1
0	8479	2683.47980428118	0
0	8486	2685.382230071292	1
0	8490	2686.193605987565	2
0	8492	2687.400141065202	3
0	8493	2688.119925952815	2
0	8499	2690.27663183244	1
0	8504	2690.399593767974	0
0	8525	2699.78461117004	1
0	8528	2700.796218529913	0
0	8540	2707.079308150682	1
0	8543	2708.305526301892	0
0	8549	2708.881644653976	1
0	8554	2711.396783416971	2
0	8555	2714.038511404576	1
0	8560	2714.541370884539	0
0	8577	2717.523511923075	1
0	8580	2718.566714460781	0
0	8594	2721.086574748498	1
0	8600	2725.070075785009	0
0	8634	2734.743897816191	1
0	8642	2737.110501490484	2
0	8646	2741.673074168166	3
0	8647	2747.031731162294	2
0	8653	2748.748032253931	1
0	8659	2748.82492061616	0
0	8670	2749.387370275493	1
0	8676	2752.437874662485	2
0	8677	2752.858904741091	1
0	8685	2754.739187927571	0
0	8696	2756.138229068875	1
0	8698	2756.932409661131	2
0	8700	2757.923048492161	3
0	8705	2761.21933530032	2
0	8712	2763.702045875903	1
0	8718	2764.194354230429	2
0	8719	2764.270861538461	1
0	8724	2766.334937782575	0
0	8730	2766.442452427581	1
0	8734	2767.631984024135	0
0	8744	2769.95497351495	1
0	8746	2771.468930944056	0
0	8752	2772.145871118811	1
0	8770	2779.034740355214	2
0	8771	2780.406541826025	1
0	8781	2781.924821467375	2
0	8787	2784.516989458366	3
0	8788	2784.800653075457	2
0	8794	2787.557808851094	1
0	8800	2787.645187354237	2
0	8801	2787.657822111352	1
0	8807	2787.695080632499	2
0	8810	2793.463243574143	1
0	8816	2795.593792724652	0
0	8843	2800.59806643438	1
0	8846	2802.472521921503	0
0	8857	2806.593368385763	1
0	8859	2810.090406370436	2
0	8863	2811.037221090933	1
0	8871	2813.438810939947	2
0	8873	2816.119910154535	3
0	8874	2816.474326257552	2
0	8880	2817.723790140538	1
0	8887	2818.578852167696	0
0	8893	2818.670050488301	1
0	8902	2823.135202164262	2
0	8904	2823.232261974046	3
0	8905	2824.539172704514	2
0	8913	2825.33141882983	1
0	8918	2825.824196855066	0
0	8934	2827.795698169501	1
0	8939	2829.16302341082	0
0	8953	2831.092324838915	1
0	8955	2831.403473265216	2
0	8959	2833.732592666342	1
0	8964	2834.935497103574	0
0	8975	2837.83856720833	1
0	8977	2838.385978031102	0
0	9002	2849.198501033756	1
0	9003	2849.396142605847	0
0	9021	2852.781255878856	1
0	9022	2853.619753079272	0
0	9030	2855.78708440432	1
0	9032	2856.858279633805	0
0	9044	2858.668050556044	1
0	9048	2859.09573308649	2
0	9050	2859.446287411751	3
0	9051	2860.144281149848	2
0	9057	2860.363734855722	3
0	9059	2862.443201664199	4
0	9062	2864.734613036657	3
0	9068	2866.577506131308	2
0	9073	2867.06942215105	1
0	9081	2872.339521517994	0
0	9087	2872.671608083616	1
0	9088	2873.928549327007	0
0	9101	2876.124421676918	1
0	9102	2877.242130756474	0
0	9113	2878.38811519358	1
0	9115	2878.836775781087	0
0	9131	2881.274111211318	1
0	9132	2881.710831068291	0
0	9138	2883.173001506369	1
0	9139	2883.421420712657	0
0	9161	2889.642567217167	1
0	9165	2890.460074160783	2
0	9168	2892.021568386166	3
0	9169	2893.067454124943	2
0	9174	2894.375549602103	1
0	9179	2894.591180805726	0
0	9190	2895.588819344896	1
0	9191	2895.624169024293	0
0	9221	2905.848985718431	1
0	9223	2907.701789182952	2
0	9226	2910.754073487711	1
0	9233	2911.464487612144	2
0	9234	2911.925810524697	1
0	9240	2913.406094169206	2
0	9242	2914.063811474633	3
0	9243	2914.872986362239	2
0	9249	2915.361330787211	3
0	9250	2916.50845409024	2
0	9255	2917.107314403679	1
0	9261	2917.906598778528	0
0	9268	2920.144784857105	1
0	9270	2923.63193349538	0
0	9277	2924.289767692151	1
0	9278	2924.297349876284	0
0	9291	2927.419181673932	1
0	9293	2928.299168044207	0
0	9299	2930.374519912493	1
0	9302	2932.210241095585	0
0	9323	2935.895308430736	1
0	9326	2936.371832721673	2
0	9331	2939.680768212697	3
0	9333	2941.042932276735	2
0	9341	2943.263404001556	1
0	9348	2945.052893849471	0
0	9354	2945.721108845241	1
0	9355	2947.357568300118	0
0	9362	2950.203295943825	1
0	9365	2951.407280390444	2
0	9366	2953.24760861978	1
0	9373	2958.545491981792	0
0	9408	2973.461259961422	1
0	9412	2984.935101118498	0
0	9423	2986.756111990629	1
0	9424	2987.810229297212	0
0	9430	2988.055708023564	1
0	9435	2989.956111760263	0
0	9448	2992.330470758979	1
0	9449	2992.810596120041	0
0	9466	2998.109681567691	1
0	9468	2999.243521500164	2
0	9469	3000.095775857766	1
0	9475	3000.45607552075	2
0	9476	3000.706559468602	1
0	9481	3000.77662615185	0
0	9487	3002.660626119744	1
0	9500	3009.958158724918	2
0	9501	3010.318769666919	1
0	9511	3013.219683591349	2
0	9512	3013.38066351176	1
0	9517	3014.296300977203	0
0	9554	3020.460298224355	1
0	9560	3025.514895401032	2
0	9563	3031.498659721656	1
0	9569	3031.776289191473	2
0	9571	3031.9838033295	3
0	9576	3032.460699243832	2
0	9581	3033.334941766395	1
0	9589	3036.836491466617	0
0	9604	3042.349164377576	1
0	9606	3045.769867599817	2
0	9609	3046.457514360455	1
0	9617	3052.258984809257	0
0	9639	3056.261421623111	1
0	9640	3057.940039664775	0
0	9647	3059.06646371416	1
0	9651	3059.881111830976	2
0	9652	3060.405265939916	1
0	9657	3061.956268249934	0
0	9665	3062.115252665211	1
0	9672	3065.913532767038	0
0	9678	3066.015242736647	1
0	9679	3066.320432500217	0
0	9685	3066.936536054772	1
0	9687	3066.97044788811	2
0	9689	3067.685757517509	1
0	9694	3071.153312907204	0
0	9705	3071.999708036028	1
0	9709	3074.399653917464	2
0	9711	3074.402986883998	3
0	9714	3076.837931483444	4
0	9715	3077.027969253934	3
0	9721	3077.400018901422	2
0	9729	3078.057583405394	3
0	9730	3080.585806770168	2
0	9735	3080.777048216777	1
0	9741	3083.849910494913	0
0	9755	3086.781115193991	1
0	9756	3087.346789869159	0
0	9763	3088.382948036697	1
0	9765	3089.24024518581	2
0	9766	3090.136161670786	1
0	9776	3092.855057246416	2
0	9783	3097.620561518226	3
0	9784	3099.370234521382	2
0	9789	3099.412397287875	1
0	9798	3100.994505265181	2
0	9800	3102.412939676745	1
0	9806	3102.724452131808	0
0	9819	3105.964269443814	1
0	9820	3106.742618251765	0
0	9827	3108.979173925834	1
0	9828	3110.217573058622	0
0	9835	3110.476915470491	1
0	9836	3110.796919580981	0
0	9842	3111.13707803252	1
0	9843	3112.788661358074	0
0	9849	3113.648412273722	1
0	9854	3114.193421650925	0
0	9865	3116.774626677142	1
0	9867	3117.956110292911	2
0	9869	3118.283085845417	3
0	9871	3120.170444150447	2
0	9879	3129.414469999956	1
0	9885	3130.350007091388	0
0	9893	3132.042002691654	1
0	9895	3133.275783808701	2
0	9897	3133.344222015875	3
0	9900	3136.332217139913	2
0	9905	3136.397037181463	1
0	9910	3137.666566071786	0
0	9930	3142.868531866938	1
0	9932	3142.953795748934	2
0	9934	3143.499624843042	3
0	9938	3146.28599793033	4
0	9939	3146.871731051873	3
0	9945	3148.228250174817	4
0	9947	3148.566294348673	5
0	9949	3151.484456484378	4
0	9956	3151.957078172348	5
0	9958	3152.398448516384	6
0	9959	3152.896170684696	5
0	9964	3154.35755099123	4
0	9973	3157.129921759552	3
0	9979	3158.046817360192	2
0	9986	3159.285691956008	1
0	9998	3163.196591143814	2
0	9999	3164.026783398918	1
0	10004	3164.39758767711	0
0	10010	3165.990938917101	1
0	10011	3168.079529276518	0
0	10027	3171.319951983629	1
0	10029	3172.037188509151	2
0	10032	3175.124240998388	1
0	10041	3178.500730968993	2
0	10045	3180.042424896054	3
0	10046	3185.524514953775	2
0	10053	3186.616704840779	1
0	10058	3187.58000634806	0
0	10083	3193.050277595452	1
0	10085	3193.07115986154	2
0	10090	3194.851059168201	1
0	10100	3198.932549557976	0
0	10128	3206.469197043086	1
0	10130	3208.060060987348	2
0	10134	3208.243154181657	3
0	10135	3208.596679010416	2
0	10141	3208.950782509962	3
0	10143	3209.454136595363	4
0	10145	3211.360882382476	3
0	10151	3212.606675703742	2
0	10157	3215.062800841756	1
0	10162	3216.351879149801	0
0	10178	3220.375354056087	1
0	10183	3223.325792195794	0
0	10192	3225.165206203127	1
0	10194	3225.608404291119	0
0	10221	3235.269555887812	1
0	10222	3238.664619302237	0
0	10229	3239.976234166199	1
0	10230	3240.464665378608	0
0	10238	3242.518771974699	1
0	10239	3243.698722983739	0
0	10273	3253.237356449128	1
0	10279	3258.389453458435	2
0	10280	3261.269889802416	1
0	10286	3263.126219170223	0
0	10293	3263.954132654768	1
0	10295	3264.321434584876	2
0	10297	3264.390829759481	3
0	10300	3265.150694223901	4
0	10301	3267.704186810703	3
0	10306	3267.769623048121	2
0	10313	3268.720902096066	3
0	10317	3269.818723612788	4
0	10318	3271.055810649678	3
0	10326	3271.795194209793	4
0	10327	3271.971215178118	3
0	10336	3275.111778539298	4
0	10337	3275.219629560386	3
0	10343	3275.320114778213	2
0	10350	3279.591110572102	1
0	10355	3279.745004427139	0
0	10434	3312.841843941864	1
0	10435	3312.985339769835	0
0	10442	3316.344640670809	1
0	10443	3316.542723471184	0
0	10450	3317.405357027703	1
0	10453	3319.783689912796	2
0	10455	3323.1408691757	3
0	10456	3324.093763286018	2
0	10461	3325.177259816521	1
0	10466	3325.344503177926	0
0	10472	3325.362793510989	1
0	10474	3325.406315122371	2
0	10477	3325.880794556985	3
0	10481	3327.987445422722	4
0	10482	3329.154029801286	3
0	10488	3329.307328777055	4
0	10490	3329.452134936067	5
0	10491	3330.368536474567	4
0	10500	3332.704057536682	5
0	10504	3333.679572437421	6
0	10505	3333.684938835771	5
0	10512	3335.206031321125	6
0	10513	3336.085425716435	5
0	10521	3339.112082104768	4
0	10528	3341.174588483486	3
0	10535	3342.282936721834	4
0	10538	3345.356249045058	3
0	10543	3345.61581454427	2
0	10549	3346.627002777321	1
0	10556	3346.770405233506	0
0	10581	3352.075058121526	1
0	10582	3353.632080022926	0
0	10623	3364.702928618455	1
0	10625	3365.414810218953	2
0	10627	3366.483867485733	3
0	10630	3366.848547233205	2
0	10637	3369.006491013024	1
0	10643	3369.228512525612	0
0	10649	3370.289702862037	1
0	10651	3370.684037085453	2
0	10653	3372.381662927859	3
0	10661	3375.744073858077	2
0	10667	3377.623691749873	1
0	10672	3378.109488877063	0
0	10700	3383.467879596022	1
0	10706	3385.871351256774	2
0	10708	3386.648508483882	3
0	10709	3386.752387841103	2
0	10715	3386.981862236238	3
0	10716	3387.314674095095	2
0	10722	3387.345001674904	3
0	10732	3391.037724905445	4
0	10733	3391.219014220677	3
0	10744	3398.419706666983	2
0	10749	3398.731422090334	1
0	10754	3398.827115423758	0
0	10760	3399.617913942141	1
0	10766	3403.431237175209	0
0	10772	3403.480939825955	1
0	10781	3406.416351429635	2
0	10782	3410.8699453509	1
0	10790	3412.883948951818	0
0	10811	3418.896897604666	1
0	10817	3421.361638792079	2
0	10818	3421.906781576113	1
0	10824	3422.425032014212	0
0	10849	3428.4896904345	1
0	10851	3428.69369151552	2
0	10853	3429.0201224675	3
0	10854	3429.102925837047	2
0	10861	3432.338046754228	1
0	10866	3432.569836811813	0
0	10903	3443.494157750955	1
0	10914	3449.315435620015	2
0	10915	3449.500172764777	1
0	10924	3454.22731549748	0
0	10933	3456.228272859218	1
0	10937	3457.806777618095	2
0	10940	3461.449315206338	1
0	10945	3461.76486202832	0
0	10951	3462.93340854724	1
0	10957	3467.081603641679	2
0	10958	3468.42032763562	1
0	10966	3472.900033909428	0
0	10977	3474.982957786267	1
0	10980	3478.076808273754	2
0	10982	3478.201598751601	3
0	10983	3478.573952975707	2
0	10988	3478.885815261978	1
0	10996	3480.359274721693	0
0	11005	3484.181456309659	1
0	11008	3490.428207091617	0
0	11033	3493.088629221386	1
0	11034	3495.273394044258	0
0	11070	3507.156885380771	1
0	11072	3508.448247020052	2
0	11078	3515.837386100588	1
0	11088	3516.510250158633	0
0	11094	3517.114114723488	1
0	11095	3518.796618686838	0
0	11102	3519.872440512967	1
0	11103	3520.195841242304	0
0	11111	3520.832120447251	1
0	11112	3522.124124677456	0
0	11118	3522.924896875688	1
0	11121	3525.494386902916	0
0	11140	3528.625511875851	1
0	11141	3528.730641142112	0
0	11160	3537.965172700038	1
0	11161	3538.000341624316	0
0	11173	3540.759747484347	1
0	11176	3542.991078629382	0
0	11182	3544.461463188463	1
0	11183	3544.829568272799	0
0	11204	3550.492986237412	1
0	11206	3552.140653360981	2
0	11209	3555.684746726519	1
0	11215	3555.91644590145	2
0	11221	3557.789623284555	1
0	11226	3558.216363350227	0
0	11241	3564.448106155795	1
0	11244	3564.785264858643	0
0	11255	3568.66681186019	1
0	11260	3570.692119121077	0
0	11297	3585.874702553183	1
0	11298	3585.992609927875	0
0	11304	3586.070271561636	1
0	11308	3586.636617040143	2
0	11309	3587.430366918044	1
0	11314	3587.543396201558	0
0	11325	3588.143004027983	1
0	11329	3590.366017646491	0
0	11341	3592.161365347694	1
0	11342	3593.127237017617	0
0	11354	3597.740512426549	1
0	11355	3597.834514498956	0
0	11361	3597.85996837187	1
0	11363	3599.194332210136	0
0	11372	3599.619611112755	1
0	11383	3602.807804977515	0
0	11389	3604.864773786632	1
0	11390	3604.925496419125	0
0	11396	3605.332742871942	1
0	11399	3606.167544443797	2
0	11400	3606.245138661428	1
0	11411	3609.332866444911	2
0	11416	3616.717791910493	1
0	11422	3616.990846889138	2
0	11426	3619.307975429495	1
0	11434	3621.947155635035	0
0	11455	3626.052632619775	1
0	11456	3626.196938608824	0
0	11463	3628.084863635844	1
0	11466	3629.381917551061	0
0	11489	3637.049159986651	1
0	11490	3637.650753943085	0
0	11497	3638.21318754252	1
0	11502	3639.446677091541	2
0	11503	3640.779750346368	1
0	11509	3642.044574489904	0
0	11515	3642.621958949059	1
0	11518	3646.074483017487	0
0	11550	3667.266597287604	1
0	11551	3667.829424173703	0
0	11562	3671.681240425696	1
0	11563	3672.546842332003	0
0	11598	3684.662380573939	1
0	11599	3685.586852481392	0
0	11609	3686.41117811717	1
0	11613	3687.183395570554	2
0	11615	3688.567966230933	3
0	11621	3689.249939175822	4
0	11622	3690.856860656478	3
0	11629	3692.758232972458	2
0	11635	3693.318467927858	1
0	11640	3693.550181008987	0
0	11646	3693.665946003878	1
0	11647	3693.759815916816	0
0	11658	3699.736093111724	1
0	11659	3700.851055072619	0
0	11665	3701.152443706011	1
0	11667	3701.63147430565	0
0	11699	3707.569960018221	1
0	11703	3708.648909204329	2
0	11704	3708.740623595526	1
0	11711	3712.242671361784	2
0	11714	3713.147532979136	3
0	11715	3713.527642611503	2
0	11720	3713.695342608305	1
0	11725	3714.015691661609	0
0	11744	3720.132524391605	1
0	11747	3723.277631939297	0
0	11757	3724.720721693453	1
0	11759	3725.508610529129	2
0	11761	3725.515868953617	3
0	11766	3729.64419241647	2
0	11773	3731.17922721838	3
0	11774	3732.341258970224	2
0	11780	3734.448796536476	1
0	11786	3734.45696814522	2
0	11788	3735.632822406953	1
0	11795	3736.524108261864	0
0	11804	3739.413432449558	1
0	11806	3740.168558312036	2
0	11808	3741.047137484949	3
0	11810	3743.670708993544	4
0	11812	3744.046638624352	5
0	11813	3746.096646273199	4
0	11819	3747.528180159767	5
0	11821	3747.791691754764	4
0	11827	3748.384664717937	5
0	11829	3751.449804906239	4
0	11842	3755.039983942619	5
0	11844	3759.156604203876	6
0	11847	3760.642710120225	5
0	11852	3760.781849242064	4
0	11858	3761.92370695899	3
0	11866	3764.387285243433	2
0	11871	3764.51164121389	1
0	11877	3765.775493882814	2
0	11879	3768.400085628192	1
0	11884	3768.911733995698	0
0	11899	3774.377172147807	1
0	11903	3774.915457066697	2
0	11904	3775.427524938979	1
0	11909	3775.465496765778	0
0	11916	3779.746875645311	1
0	11918	3780.254067874929	0
0	11927	3780.741526528228	1
0	11930	3781.576400521281	0
0	11944	3783.267281896809	1
0	11951	3789.510221708265	2
0	11952	3789.598141689183	1
0	11969	3797.340451362595	2
0	11970	3797.368747879536	1
0	11980	3801.564781389638	2
0	11981	3802.078784772855	1
0	11987	3802.144616960381	2
0	11989	3802.220771029043	3
0	11990	3804.445593661347	2
0	11995	3804.497532206519	1
0	12004	3808.733769541661	0
0	12012	3812.493760146762	1
0	12014	3813.639465033178	2
0	12015	3813.752420732429	1
0	12021	3815.160410301664	0
0	12027	3815.310245030397	1
0	12032	3816.139318525482	2
0	12033	3816.379325578495	1
0	12044	3823.931467219716	0
0	12050	3824.794018725633	1
0	12052	3825.141430177802	2
0	12054	3826.723944224544	3
0	12056	3828.066936756382	4
0	12057	3828.708175673331	3
0	12065	3832.723746344394	2
0	12073	3835.155794071126	3
0	12074	3835.878474288374	2
0	12080	3836.179845250423	3
0	12085	3837.347459253607	4
0	12086	3837.510861193134	3
0	12091	3837.591015546517	2
0	12096	3839.414336718329	1
0	12105	3843.206987249075	2
0	12110	3844.215926674497	3
0	12112	3844.476207614787	4
0	12113	3844.914003772842	3
0	12119	3846.247635906237	2
0	12126	3847.552541725685	3
0	12129	3850.410392808455	2
0	12135	3851.02441449696	3
0	12136	3851.889389707832	2
0	12142	3853.051530463518	3
0	12143	3853.072794139986	2
0	12148	3853.970847078846	1
0	12157	3858.17220334897	2
0	12158	3859.134605045444	1
0	12164	3859.412015352662	0
0	12179	3862.655170597796	1
0	12188	3867.794288539987	0
0	12227	3873.844044108714	1
0	12228	3874.034686104601	0
0	12245	3878.080317036877	1
0	12248	3880.117137218443	0
0	12273	3887.260957005665	1
0	12275	3888.985406035541	2
0	12278	3892.485360360913	1
0	12283	3893.309533770478	0
0	12305	3899.52190360758	1
0	12306	3900.3650376637	0
0	12323	3904.174945122904	1
0	12325	3905.592690337636	2
0	12326	3906.179493952597	1
0	12333	3909.581241899081	2
0	12335	3910.164205509361	3
0	12336	3910.767121049998	2
0	12341	3910.917685835396	1
0	12347	3911.382931240222	0
0	12380	3924.51618505568	1
0	12381	3924.540436852545	0
0	12399	3930.188598184191	1
0	12402	3931.885239316623	0
0	12409	3933.905186254978	1
0	12411	3934.671167125409	2
0	12415	3935.567634984438	3
0	12417	3939.741229417193	2
0	12424	3940.370635401247	1
0	12431	3941.979704274803	0
0	12443	3948.10397776052	1
0	12445	3949.371723254437	2
0	12451	3950.688094633259	1
0	12457	3950.703883024352	2
0	12458	3951.807151259565	1
0	12464	3952.229091832637	0
0	12495	3955.183629082873	1
0	12497	3955.365916102023	2
0	12499	3956.227657591169	3
0	12500	3956.803813796524	2
0	12505	3956.993909471016	1
0	12511	3957.573890680433	2
0	12512	3957.764471862262	1
0	12519	3962.608360588753	0
0	12539	3966.904190476284	1
0	12540	3967.278366368958	0
0	12546	3967.976348507122	1
0	12547	3968.371438292186	0
0	12568	3973.971955845154	1
0	12569	3974.002804324612	0
0	12589	3978.888212158339	1
0	12595	3983.435998882737	2
0	12596	3984.533309200652	1
0	12606	3987.723770755051	0
0	12623	3993.51675743921	1
0	12626	3995.723660333655	0
0	12632	3995.976876395663	1
0	12633	3997.728871253859	0
0	12639	3998.790638781512	1
0	12640	3999.865589076448	0
0	12646	4000.293374508071	1
0	12647	4000.69124442132	0
0	12653	4001.387403078282	1
0	12658	4004.287942551159	2
0	12662	4006.481185036313	1
0	12669	4006.975440041686	2
0	12670	4007.623215894007	1
0	12677	4008.553752017161	2
0	12678	4011.790577746857	1
0	12686	4013.615286016868	0
0	12693	4014.734886301362	1
0	12695	4015.731239741593	2
0	12697	4020.682935487116	3
0	12698	4021.305651608456	2
0	12704	4024.64858082536	3
0	12707	4024.861589776492	4
0	12712	4028.608827458559	3
0	12718	4031.755274723126	2
0	12724	4032.685887150009	1
0	12730	4033.196211951518	2
0	12731	4034.661401537584	1
0	12736	4035.346425256599	0
0	12753	4036.441122669914	1
0	12755	4036.445464576202	2
0	12756	4038.833565417492	1
0	12761	4038.947076059822	0
0	12765	4040.67409945893	1
0	12769	4042.868435748559	0
0	12782	4044.414372968924	1
0	12787	4046.954358546304	2
0	12788	4048.874380509684	1
0	12793	4049.148225983545	0
0	12815	4051.148308485179	1
0	12824	4058.005847015683	0
0	12833	4059.89398628093	1
0	12837	4062.456505910984	0
0	12849	4063.606197870083	1
0	12852	4066.940971164283	2
0	12854	4068.546742809029	3
0	12855	4069.464564890418	2
0	12861	4072.564596370968	1
0	12867	4076.845428584356	0
0	12885	4084.248653412268	1
0	12889	4085.743685482802	2
0	12891	4087.484651465111	3
0	12892	4088.782392424979	2
0	12898	4089.615974416851	3
0	12902	4091.268670123256	4
0	12906	4092.839654905424	3
0	12911	4093.023589435621	2
0	12918	4096.900201490118	1
0	12927	4100.779916776638	0
0	12949	4102.924300647447	1
0	12951	4103.388424253536	2
0	12954	4106.092772883197	3
0	12957	4114.603790233904	2
0	12962	4115.039269718715	1
0	12971	4115.5085015752	2
0	12972	4116.055560255374	1
0	12981	4122.02626436817	0
0	12993	4124.238353395877	1
0	12994	4125.848993627424	0
0	13006	4128.08647727129	1
0	13007	4130.998436621588	0
0	13026	4132.21474091789	1
0	13033	4137.363803279492	0
0	13042	4137.778829115851	1
0	13043	4138.896889972402	0
0	13052	4142.079159513006	1
0	13053	4142.9414070279	0
0	13074	4150.579884856716	1
0	13076	4151.084163391827	2
0	13078	4152.386891458482	1
0	13083	4152.618487933177	0
0	13099	4163.126239566838	1
0	13102	4163.949147036148	0
0	13108	4164.273949034874	1
0	13113	4167.118291639404	2
0	13114	4169.207275055688	1
0	13122	4171.206417969641	0
0	13132	4172.295164048977	1
0	13137	4174.419303376061	2
0	13138	4175.21949969353	1
0	13145	4177.770623551705	0
0	13155	4180.095554311867	1
0	13162	4186.066953361002	0
0	13168	4186.645331361141	1
0	13169	4186.679542968036	0
0	13188	4188.729059739051	1
0	13190	4189.084163138462	2
0	13192	4189.245537012243	3
0	13194	4191.351923934092	2
0	13200	4191.492428919582	3
0	13202	4192.379765220134	2
0	13208	4193.268262895673	1
0	13215	4195.226509931559	2
0	13216	4196.557045388229	1
0	13222	4197.468827733943	2
0	13225	4198.258744886391	3
0	13226	4199.417623421015	2
0	13231	4200.882558340083	1
0	13240	4208.564552242303	0
0	13253	4209.68609185168	1
0	13254	4210.998274950589	0
0	13260	4211.922582549306	1
0	13265	4212.79194916916	0
0	13271	4213.447815864686	1
0	13275	4214.767539228828	0
0	13296	4218.302764325711	1
0	13297	4218.42069102774	0
0	13304	4219.758969394338	1
0	13305	4220.202136340663	0
0	13323	4227.64394779074	1
0	13324	4229.387895914302	0
0	13333	4230.252452436738	1
0	13334	4231.031382538073	0
0	13340	4231.510846815616	1
0	13342	4236.087831899467	0
0	13348	4237.80745698877	1
0	13350	4238.125121031124	2
0	13352	4238.292366949657	3
0	13353	4239.988453275261	2
0	13359	4240.826167403632	1
0	13367	4242.135405798173	0
0	13374	4243.535444106182	1
0	13375	4244.263252781662	0
0	13410	4263.061816142247	1
0	13414	4265.102625066807	2
0	13415	4265.324447307236	1
0	13420	4266.193684660546	0
0	13429	4266.886052374179	1
0	13436	4270.356282662147	2
0	13440	4271.088804293694	3
0	13442	4271.279161443144	4
0	13446	4275.905092080318	3
0	13452	4279.058847250956	2
0	13458	4279.562439910281	3
0	13460	4280.085018930277	4
0	13463	4280.25070731997	3
0	13469	4280.392445147058	4
0	13473	4282.020963477219	5
0	13475	4282.155464456735	6
0	13476	4283.366617384908	5
0	13481	4283.987093675834	4
0	13489	4285.998759083789	3
0	13496	4287.870845637742	2
0	13503	4291.16647317476	1
0	13509	4291.789507276912	2
0	13513	4292.898379088198	1
0	13520	4294.021774504836	2
0	13522	4294.913973847971	3
0	13523	4295.076005700516	2
0	13528	4296.274543548922	1
0	13533	4297.266877337123	0
0	13537	4297.290205023005	1
0	13545	4301.222057761638	2
0	13546	4301.30510241749	1
0	13551	4301.770558691948	0
0	13557	4302.009106478957	1
0	13564	4306.004267016515	0
0	13583	4310.948886290661	1
0	13587	4312.7420752676	2
0	13588	4314.513207925975	1
0	13597	4315.410853436671	2
0	13599	4317.611523653064	3
0	13601	4319.327584702819	4
0	13603	4319.33714920444	5
0	13605	4320.48139720965	6
0	13611	4321.408479493596	7
0	13612	4321.599197212574	6
0	13617	4322.546415564496	5
0	13622	4322.761620878977	4
0	13630	4323.240946341871	3
0	13637	4326.214407100384	4
0	13639	4328.148960467563	5
0	13641	4329.771262020139	4
0	13646	4329.852991981189	3
0	13654	4331.117759967682	2
0	13659	4332.037964109801	1
0	13664	4334.210198011648	0
0	13668	4334.221082540111	1
0	13674	4337.143727880905	0
0	13696	4344.963712837942	1
0	13698	4345.153167115224	2
0	13701	4345.645053573321	3
0	13703	4347.298302791036	2
0	13710	4350.296110162028	1
0	13716	4350.927875677491	0
0	13722	4351.99997523913	1
0	13725	4353.359177352652	0
0	13736	4353.569485561807	1
0	13739	4354.802037988792	2
0	13740	4354.812638855051	1
0	13745	4355.26151604205	0
0	13774	4364.161900536259	1
0	13775	4368.338531243568	0
0	13782	4369.685823445999	1
0	13784	4371.096436088215	2
0	13787	4373.79232477401	1
0	13793	4374.291590338737	2
0	13795	4374.424771209778	3
0	13797	4375.101193235517	4
0	13800	4377.248319153311	5
0	13802	4381.425531681003	4
0	13810	4382.361109491029	5
0	13814	4383.245622488215	6
0	13816	4383.670783053003	7
0	13818	4384.507125701152	8
0	13821	4386.440947762033	7
0	13827	4390.677938508754	6
0	13834	4391.786095228563	5
0	13840	4392.696915327233	4
0	13845	4392.938580774408	3
0	13850	4393.070244250319	2
0	13856	4394.09005514145	3
0	13862	4395.80593930175	4
0	13865	4396.801179723544	5
0	13867	4397.463601300765	6
0	13868	4398.344492494536	5
0	13874	4400.760192007225	4
0	13884	4403.969236940158	5
0	13885	4404.880701514778	4
0	13890	4406.300955438223	3
0	13898	4407.714116938131	2
0	13904	4409.854688799927	1
0	13911	4410.701335607158	0
0	13969	4427.092037471894	1
0	13971	4428.995949272277	2
0	13973	4429.053658145998	3
0	13975	4431.34701729321	4
0	13976	4432.240056028284	3
0	13983	4434.271114289946	2
0	13988	4435.008160587966	1
0	13993	4435.062795328774	0
0	14015	4436.827299173395	1
0	14019	4438.224683039175	0
0	14032	4440.614447224732	1
0	14038	4447.440982284405	0
0	14053	4452.178694383761	1
0	14054	4452.794125789442	0
0	14071	4454.845060199529	1
0	14075	4455.510883313886	2
0	14076	4455.670986460509	1
0	14082	4456.305250720746	2
0	14084	4458.45138027574	1
0	14089	4459.188662774724	0
0	14098	4461.445717152623	1
0	14099	4461.716144958975	0
0	14105	4461.867279253566	1
0	14110	4465.855655191438	2
0	14111	4466.078707068728	1
0	14116	4466.101820866857	0
0	14139	4471.024839290398	1
0	14142	4472.342926856762	0
0	14153	4474.476868336445	1
0	14155	4478.619815362125	2
0	14160	4480.747368618344	1
0	14166	4480.762203767289	2
0	14168	4481.215995820273	1
0	14175	4482.372843030299	0
0	14183	4485.620955171351	1
0	14188	4486.280802618713	2
0	14190	4486.50854927102	3
0	14194	4486.657993134638	2
0	14202	4491.789397713531	1
0	14207	4493.394138589786	0
0	14218	4494.264707974243	1
0	14221	4496.484215409551	0
0	14227	4496.928227494401	1
0	14230	4499.259553479955	0
0	14278	4511.605001551094	1
0	14284	4513.376819906521	2
0	14285	4513.747662257197	1
0	14291	4514.644073290908	0
0	14307	4517.871945423407	1
0	14313	4523.744002441065	2
0	14315	4524.454750849373	3
0	14320	4526.959585758043	2
0	14327	4528.132732430704	1
0	14333	4529.413367966901	2
0	14340	4532.842444748196	1
0	14345	4535.243893078129	0
0	14356	4536.738365936292	1
0	14359	4538.152764278416	0
0	14376	4540.780498984002	1
0	14383	4542.188738702375	2
0	14387	4545.615471923549	1
0	14392	4546.207707428045	0
0	14410	4557.477281368547	1
0	14414	4559.133167026635	2
0	14415	4560.006060832382	1
0	14420	4560.665781665081	0
0	14438	4567.426493741137	1
0	14439	4567.509190986774	0
0	14446	4572.769461187042	1
0	14447	4572.831287548286	0
0	14459	4577.057136081842	1
0	14460	4579.286082222436	0
0	14471	4583.599982091126	1
0	14475	4587.752402595194	2
0	14479	4591.340998066406	3
0	14481	4593.210647233665	4
0	14483	4593.479544860398	5
0	14484	4593.657201985057	4
0	14492	4594.722177177267	3
0	14499	4599.17858839098	2
0	14505	4602.673004459373	1
0	14510	4603.100216339984	0
0	14556	4616.174019670719	1
0	14557	4617.197349281581	0
0	14563	4617.564982647133	1
0	14566	4619.894816214148	0
0	14576	4620.884469430231	1
0	14579	4621.063741328067	0
0	14595	4627.15675029599	1
0	14597	4627.745870655049	2
0	14601	4628.620108441097	3
0	14605	4630.985739594696	4
0	14606	4631.072908456616	3
0	14621	4637.748610430117	4
0	14622	4638.186959785922	3
0	14631	4641.061115902469	4
0	14634	4649.643436634772	3
0	14640	4650.981136236569	2
0	14645	4651.037477523087	1
0	14654	4656.436858595284	0
0	14666	4658.089812163433	1
0	14667	4658.391336495922	0
0	14675	4661.304758095857	1
0	14680	4666.29154891306	0
0	14692	4669.264892049533	1
0	14696	4669.890970684658	2
0	14699	4670.933314071966	1
0	14705	4673.4232934582	0
0	14712	4675.002781484306	1
0	14713	4675.484598513322	0
0	14719	4675.577432626824	1
0	14720	4675.843613439701	0
0	14733	4677.777697309194	1
0	14734	4677.854050570874	0
0	14751	4679.71176151038	1
0	14753	4679.729072580016	2
0	14759	4680.572245382377	1
0	14764	4681.857288295754	0
0	14807	4703.175999159357	1
0	14809	4703.629816251464	2
0	14811	4704.182215639113	3
0	14812	4706.734530508377	2
0	14819	4707.763522102791	3
0	14820	4708.952783562536	2
0	14825	4709.315860409427	1
0	14831	4709.851585732372	2
0	14832	4711.403989175389	1
0	14838	4714.110169158775	2
0	14840	4714.733011357674	3
0	14845	4719.420074010564	2
0	14850	4720.136211609863	1
0	14856	4721.347458410836	0
0	14883	4731.38701483752	1
0	14885	4731.486116066777	2
0	14887	4733.026085300282	3
0	14889	4734.232321437631	4
0	14893	4736.847048995034	3
0	14905	4739.29074985704	4
0	14906	4739.550828178189	3
0	14911	4740.861000247723	2
0	14924	4748.074754331473	3
0	14926	4748.472871148521	4
0	14930	4751.112575717836	3
0	14936	4752.065534094068	2
0	14941	4752.779367133328	1
0	14948	4753.278126957953	2
0	14950	4754.513055568642	3
0	14954	4759.136653102829	4
0	14956	4759.147410912487	5
0	14958	4764.491539766219	6
0	14960	4765.341557342516	7
0	14961	4765.516548376077	6
0	14967	4767.575372642875	5
0	14972	4768.858896433681	4
0	14977	4769.204037154023	3
0	14983	4772.82485370503	2
0	14990	4773.660768557011	3
0	14991	4773.81136816242	2
0	14996	4773.955453544489	1
0	15003	4774.601942399799	0
0	15007	4774.722426827075	1
0	15009	4775.468423591454	2
0	15015	4779.673713247588	1
0	15020	4779.918912002002	0
0	15024	4781.161971609463	1
0	15028	4783.029737447847	0
0	15036	4786.553234252226	1
0	15038	4788.833922841202	0
0	15046	4790.340567681527	1
0	15047	4791.719070876524	0
0	15053	4791.949049956617	1
0	15057	4793.818181913665	2
0	15058	4794.412152243308	1
0	15068	4796.598824727171	2
0	15069	4796.961988046604	1
0	15074	4797.808228443149	0
0	15091	4802.734927301195	1
0	15097	4806.6142199375	2
0	15099	4806.693476532759	3
0	15100	4808.102803940713	2
0	15105	4808.263190853405	1
0	15110	4808.440261977079	0
0	15122	4814.215676720804	1
0	15125	4816.477800019643	0
0	15132	4817.178284920203	1
0	15135	4818.681986903362	2
0	15137	4820.772444780124	3
0	15139	4825.139647155151	4
0	15141	4825.16546505936	5
0	15142	4825.727426873044	4
0	15149	4826.432296242745	3
0	15156	4830.707958824575	2
0	15162	4831.355274377837	1
0	15172	4833.336291790193	0
0	15186	4837.876024005195	1
0	15187	4838.000121971525	0
0	15211	4841.262880898873	1
0	15213	4841.874872594785	0
0	15235	4849.1823598482	1
0	15239	4851.07206515133	2
0	15241	4851.572532565354	3
0	15243	4852.956699370216	4
0	15246	4853.913752566134	5
0	15248	4854.549260222081	6
0	15252	4855.871586606339	7
0	15253	4856.190438617423	6
0	15259	4856.637647878976	7
0	15262	4858.242252124925	8
0	15264	4859.184191811155	9
0	15267	4859.967300315166	8
0	15272	4863.208769895024	7
0	15278	4863.847253784153	6
0	15285	4864.362500289537	7
0	15287	4864.389312720437	6
0	15292	4864.684655036213	5
0	15298	4865.140293650548	4
0	15304	4865.662394979224	5
0	15308	4866.436642614157	6
0	15311	4867.550084313938	5
0	15317	4867.931657914532	4
0	15323	4868.65869675858	3
0	15329	4869.438210852427	2
0	15335	4869.488050348865	3
0	15340	4872.068894411717	2
0	15349	4877.606089485959	1
0	15354	4878.924010102404	0
0	15371	4881.9307299431	1
0	15372	4882.229975350357	0
0	15381	4884.463495931191	1
0	15383	4885.701543826315	0
0	15410	4890.426342140195	1
0	15411	4890.498492159603	0
0	15418	4893.146790977224	1
0	15419	4896.051716879323	0
0	15442	4900.760421642043	1
0	15443	4901.92841401266	0
0	15453	4902.107332079181	1
0	15457	4903.455772229995	2
0	15458	4904.050857757012	1
0	15464	4905.943820952002	0
0	15473	4911.085974300298	1
0	15477	4915.034452770414	2
0	15486	4921.793785933436	3
0	15488	4922.299903515837	4
0	15490	4922.340134251561	5
0	15493	4923.19406777177	4
0	15499	4927.749734804344	3
0	15505	4928.905849447735	2
0	15510	4929.331473392156	1
0	15515	4929.436129825856	0
0	15524	4930.547273648672	1
0	15527	4932.377471191592	2
0	15528	4934.344348838255	1
0	15533	4934.768940068177	0
0	15544	4936.216201742889	1
0	15548	4937.325318213322	2
0	15550	4937.833397141652	1
0	15555	4938.630564056036	0
0	15578	4942.69222238675	1
0	15579	4943.184673205154	0
0	15591	4943.698040607206	1
0	15593	4945.71236420071	0
0	15604	4946.508587447729	1
0	15606	4948.189595911352	2
0	15607	4948.368430538154	1
0	15613	4950.727248628228	2
0	15616	4951.48060129188	1
0	15624	4952.875182508383	0
0	15637	4954.28435052639	1
0	15639	4955.079920359579	2
0	15640	4956.301050681582	1
0	15646	4957.730683462164	0
0	15652	4957.837284512806	1
0	15655	4959.40853915273	0
0	15662	4960.162901844189	1
0	15664	4960.560322120913	0
0	15680	4964.84453710717	1
0	15682	4965.112446501076	2
0	15688	4969.52648407042	1
0	15697	4971.862699149261	2
0	15698	4971.869914613129	1
0	15703	4972.505815281206	0
0	15714	4976.198659548621	1
0	15716	4978.106079609467	2
0	15718	4978.969984062947	3
0	15719	4982.986732643712	2
0	15724	4983.197556777144	1
0	15729	4984.855573801462	0
0	15742	4986.841048129105	1
0	15744	4987.776295619111	0
0	15750	4988.321476660919	1
0	15752	4991.128125291805	0
0	15769	4991.907511716172	1
0	15770	4993.098120881055	0
0	15787	4995.968722233095	1
0	15791	4998.286342318899	2
0	15793	4998.543942373028	1
0	15800	5000.297465151967	2
0	15802	5000.500962115056	3
0	15804	5000.52548981069	4
0	15808	5004.870390600004	3
0	15813	5005.065836212212	2
0	15818	5006.186590712427	1
0	15828	5007.332732449692	0
0	15863	5025.286348094906	1
0	15868	5028.02361875128	0
0	15893	5032.245522473864	1
0	15894	5032.465192645918	0
0	15911	5039.959631437273	1
0	15914	5042.543358589225	0
0	15923	5044.835128780467	1
0	15926	5046.356261081206	0
0	15939	5049.879862392728	1
0	15940	5050.926860700534	0
0	15956	5054.245751228726	1
0	15957	5055.349346965136	0
0	15967	5055.911553399666	1
0	15971	5058.057990776818	0
0	15986	5060.830745137819	1
0	15989	5066.130306753789	0
0	15995	5066.940251243225	1
0	15997	5067.622784624268	2
0	16000	5073.322586710222	1
0	16006	5074.283395167819	0
0	16012	5074.567780868569	1
0	16013	5074.59676671502	0
0	16033	5076.580261818844	1
0	16037	5078.149973023485	0
0	16059	5085.623804684563	1
0	16061	5086.175863647434	2
0	16064	5089.251207137422	1
0	16069	5089.356469012396	0
0	16078	5089.834774729618	1
0	16079	5092.941010321909	0
0	16109	5098.301818714179	1
0	16112	5101.056469313066	2
0	16113	5103.067163831955	1
0	16119	5106.276099934347	0
0	16131	5106.835896431916	1
0	16134	5109.559013914922	2
0	16135	5110.613896027116	1
0	16141	5111.598081649423	2
0	16144	5112.444696276086	3
0	16151	5116.896757787621	4
0	16153	5120.440834098561	5
0	16155	5121.213199357629	6
0	16157	5122.85690980101	7
0	16160	5123.388347357548	6
0	16165	5123.726400737849	5
0	16171	5124.106548544912	6
0	16172	5125.06492342026	5
0	16177	5125.566567148888	4
0	16183	5129.232801095516	3
0	16192	5130.498696339674	2
0	16206	5134.669062334466	1
0	16211	5134.737184069538	0
0	16267	5152.430538092319	1
0	16272	5153.140853818305	0
0	16286	5154.608742679338	1
0	16288	5155.090904506641	2
0	16292	5157.165399256535	3
0	16294	5157.602500212758	4
0	16295	5161.693329604896	3
0	16300	5162.593731511941	2
0	16305	5163.030937301649	1
0	16311	5165.569657225193	0
0	16317	5166.115139347547	1
0	16320	5167.137408188396	0
0	16334	5172.391347350924	1
0	16335	5173.006617023694	0
0	16344	5177.456162434948	1
0	16345	5179.568584678462	0
0	16356	5183.916177264831	1
0	16358	5184.930428932661	2
0	16363	5186.1803945927	3
0	16364	5186.511919874523	2
0	16370	5191.604327447589	1
0	16376	5192.099636460233	0
0	16382	5192.740049755743	1
0	16386	5193.976005546328	2
0	16389	5197.306644740327	3
0	16393	5197.867471610371	4
0	16396	5202.055096181173	3
0	16401	5202.124731623719	2
0	16406	5203.586166870671	1
0	16411	5203.649584994643	0
0	16425	5206.211040298425	1
0	16427	5206.594088354852	2
0	16431	5208.483168928865	1
0	16437	5209.140880342933	2
0	16438	5209.929028760434	1
0	16443	5210.299439101619	0
0	16452	5212.577119458878	1
0	16454	5212.821201704874	2
0	16458	5215.079155795826	1
0	16463	5216.661016328748	0
0	16475	5217.446259102886	1
0	16476	5218.050003341189	0
0	16490	5219.001790818543	1
0	16493	5220.777437656236	0
0	16500	5222.297059138321	1
0	16502	5224.453436779438	2
0	16503	5224.810958701367	1
0	16508	5224.975861913344	0
0	16520	5228.863183838177	1
0	16521	5230.148616285727	0
0	16536	5234.795811749449	1
0	16541	5236.781397427725	0
0	16554	5238.49719196616	1
0	16556	5239.657660522246	2
0	16558	5240.120128657884	3
0	16559	5240.639042709251	2
0	16564	5240.86100574519	1
0	16570	5240.884229772915	2
0	16572	5242.364977152261	3
0	16580	5246.420209389951	2
0	16586	5247.930191498579	3
0	16588	5248.543831640392	4
0	16589	5248.812510865209	3
0	16595	5249.283929053664	4
0	16596	5251.835070485469	3
0	16601	5253.108087276497	2
0	16608	5253.153985270483	3
0	16610	5254.73656428408	2
0	16616	5254.856859275395	3
0	16617	5255.321075154751	2
0	16623	5255.717175409098	3
0	16624	5258.358990524002	2
0	16631	5262.967092828967	1
0	16637	5264.66019807962	0
0	16643	5264.812304674914	1
0	16646	5265.97652615467	2
0	16648	5266.254540644403	3
0	16652	5269.346410729265	2
0	16658	5271.385384740147	1
0	16664	5271.540879454609	0
0	16673	5275.759394364113	1
0	16674	5276.718464344598	0
0	16695	5281.309583894511	1
0	16696	5282.2831904541	0
0	16711	5287.645592892846	1
0	16712	5288.098361437852	0
0	16758	5297.880238437307	1
0	16759	5300.879325560877	0
0	16780	5310.492320475343	1
0	16782	5310.932864478118	2
0	16789	5314.539986769351	1
0	16795	5314.543883854639	2
0	16800	5317.398607603063	3
0	16805	5324.515161672015	2
0	16811	5325.471621792079	1
0	16817	5325.672289661142	2
0	16819	5327.26910785049	3
0	16823	5329.919033501408	2
0	16832	5332.393811013675	3
0	16835	5334.966492727809	2
0	16840	5336.003393507179	1
0	16846	5337.421082504788	2
0	16847	5337.57029473415	1
0	16857	5344.205682940967	2
0	16863	5348.747267296227	3
0	16865	5352.272343608	2
0	16870	5352.662037060165	1
0	16874	5358.597118404685	2
0	16877	5358.789037118939	1
0	16882	5359.260103642674	0
0	16888	5360.055682797368	1
0	16890	5360.521986121041	0
0	16896	5360.536926673986	1
0	16899	5362.724875997543	0
0	16914	5368.40962037809	1
0	16918	5371.510601503414	2
0	16919	5372.220000500093	1
0	16926	5375.686518801093	2
0	16927	5376.246660589228	1
0	16934	5378.270947731965	2
0	16938	5379.054290507952	1
0	16945	5382.217638442695	2
0	16951	5383.747685511367	3
0	16954	5385.141303680068	2
0	16961	5386.625597989181	3
0	16962	5386.861041816199	2
0	16967	5388.67144804513	1
0	16972	5388.879346809644	0
0	17004	5399.414120866864	1
0	17005	5400.962969088029	0
0	17014	5405.280286162698	1
0	17015	5405.420123407932	0
0	17034	5409.285070284918	1
0	17035	5410.095457925997	0
0	17045	5412.603395081492	1
0	17049	5414.797591487127	2
0	17050	5415.183459584242	1
0	17055	5415.28200754689	0
0	17063	5417.559086278253	1
0	17067	5419.025339302	2
0	17068	5419.209886769801	1
0	17073	5422.110212923434	0
0	17096	5427.955954061672	1
0	17100	5431.963720422121	2
0	17101	5432.651117625056	1
0	17107	5434.547422491835	0
0	17125	5444.135106424785	1
0	17126	5448.103814446707	0
0	17132	5448.451513126541	1
0	17135	5452.986673810444	2
0	17137	5455.013442172985	3
0	17140	5456.083331048518	2
0	17149	5459.438022326305	1
0	17154	5459.573984097121	0
0	17180	5466.198043084033	1
0	17183	5471.455935769687	0
0	17190	5473.588042714245	1
0	17191	5475.051101832535	0
0	17207	5477.074197863143	1
0	17208	5477.518851633391	0
0	17226	5481.539481316903	1
0	17232	5485.200049111507	2
0	17235	5487.40123603994	1
0	17241	5488.374547986807	2
0	17252	5502.471515406846	1
0	17258	5503.099587128692	0
0	17264	5503.530466496423	1
0	17267	5504.020095890642	2
0	17268	5506.240939017181	1
0	17274	5506.533799493274	0
0	17303	5513.666656962427	1
0	17308	5516.903451737059	2
0	17309	5520.731248977405	1
0	17314	5521.706633655154	0
0	17331	5526.473713197755	1
0	17334	5527.753599570879	2
0	17335	5527.895666855803	1
0	17340	5528.531131671092	0
0	17370	5534.603214153995	1
0	17373	5534.85087491152	2
0	17375	5537.24098975555	1
0	17380	5537.42289623094	0
0	17386	5537.636953643399	1
0	17388	5537.875565005806	2
0	17397	5542.529212064502	3
0	17398	5542.699274446119	2
0	17405	5546.581676017401	3
0	17406	5547.865555546144	2
0	17412	5548.081332738672	3
0	17417	5550.523047059176	2
0	17423	5553.744701881835	1
0	17431	5555.149460424211	2
0	17436	5557.208805217462	3
0	17437	5560.559980323987	2
0	17442	5560.567200016671	1
0	17452	5565.968802131711	2
0	17453	5567.407841551738	1
0	17460	5569.423025613061	2
0	17461	5569.431844985465	1
0	17466	5569.994759319634	0
0	17480	5570.678633165037	1
0	17485	5572.85910894353	0
0	17507	5578.977543524422	1
0	17508	5581.628290515235	0
0	17517	5583.091430436075	1
0	17520	5586.897808419262	0
0	17532	5590.178070063535	1
0	17534	5593.817583308159	2
0	17535	5594.559894690967	1
0	17540	5594.895157162053	0
0	17549	5596.192958635018	1
0	17552	5598.178448568713	2
0	17553	5598.178939286194	1
0	17560	5599.842185730333	2
0	17565	5602.697296063436	3
0	17567	5603.547366753421	4
0	17568	5604.163980398698	3
0	17574	5606.620922634667	2
0	17582	5608.001629140149	3
0	17584	5608.612460724016	2
0	17589	5610.137620816904	1
0	17598	5612.321180153902	0
0	17612	5619.988175203811	1
0	17616	5621.082421209397	2
0	17622	5622.812392934868	3
0	17624	5622.842359950518	4
0	17626	5623.232327035767	5
0	17627	5624.855939367816	4
0	17633	5626.179879510718	3
0	17639	5628.868347028366	2
0	17644	5628.976382786901	1
0	17650	5629.160863385828	2
0	17652	5629.575487821787	3
0	17653	5633.005623985315	2
0	17659	5633.044258325055	3
0	17660	5633.133972554204	2
0	17666	5633.969925449785	1
0	17673	5634.991195209807	0
0	17677	5635.562676353942	1
0	17681	5639.471610213501	2
0	17682	5641.09824349313	1
0	17688	5642.631577783079	2
0	17689	5643.24626715115	1
0	17695	5644.45793959037	0
0	17723	5649.157546891201	1
0	17724	5651.187472714999	0
0	17730	5651.469372123699	1
0	17734	5652.37547644713	2
0	17737	5652.936846248034	1
0	17743	5653.863785390578	0
0	17758	5655.586124285936	1
0	17761	5657.208345971705	0
0	17767	5657.710276334863	1
0	17769	5659.788802301976	0
0	17781	5660.839128131314	1
0	17782	5660.887503671285	0
0	17794	5662.50536846019	1
0	17799	5663.022833216745	0
0	17824	5671.31557258716	1
0	17828	5671.691256376699	2
0	17829	5674.726212906119	1
0	17835	5675.89104407061	0
0	17873	5694.212010280282	1
0	17876	5696.88078752953	0
0	17898	5701.110653252197	1
0	17901	5703.022966443202	0
0	17908	5705.634577197048	1
0	17909	5709.086666560998	0
0	17920	5710.285036283936	1
0	17921	5710.394740641173	0
0	17929	5710.981130991895	1
0	17930	5711.403956143251	0
0	17936	5711.817830172539	1
0	17939	5719.839081440861	2
0	17943	5720.775997947903	3
0	17944	5722.381997028551	2
0	17950	5725.639194873843	1
0	17955	5725.90115339677	0
0	17969	5731.339252159577	1
0	17971	5734.833674782263	2
0	17973	5738.370532904737	3
0	17974	5739.258711774685	2
0	17981	5742.678346324017	3
0	17983	5744.521671456731	4
0	17984	5745.205850673421	3
0	17989	5746.79514447809	2
0	17994	5747.129044199633	1
0	17999	5747.386258890181	0
0	18018	5755.70733040338	1
0	18025	5762.068235621278	2
0	18027	5762.06921374132	3
0	18031	5763.066165854539	4
0	18033	5763.183656008835	5
0	18035	5763.789091530857	6
0	18036	5765.274251651695	5
0	18043	5766.599248347288	4
0	18050	5767.517446620643	3
0	18056	5769.941752655687	2
0	18061	5770.091073002072	1
0	18066	5770.235279790484	0
0	18080	5773.216313111489	1
0	18082	5775.061566525509	2
0	18085	5775.731194583751	3
0	18088	5778.962452277139	2
0	18097	5780.516041417948	3
0	18099	5780.852387831687	4
0	18102	5781.623580794867	3
0	18109	5785.6402584841	2
[...]
4	79810	26043.98386648113	4926.5768363556
4	79907	26065.330324293515	4939.5857533978
4	79923	26069.908822772755	4942.0054893732
4	79939	26074.155218841342	4943.5377043585
4	79947	26079.835465327705	4945.2816924061
4	79952	26080.810790054919	4942.5493373219
4	79968	26087.28254734507	4942.2252418734
4	80024	26110.047708309218	4949.7639545274
4	80115	26133.68248848766	4964.1639234212
4	80120	26133.69518588499	4955.7133484813
4	80125	26133.929467574388	4955.0592774545
4	80132	26134.876435489349	4953.6117824288
4	80143	26145.150643194338	4961.2910594092
4	80156	26145.953604799798	4960.0387375136
4	80166	26147.931031899864	4957.2549645994
4	80185	26152.873220549623	4959.1121775037
4	80194	26157.789357479407	4952.3149173454
4	80205	26162.332159992534	4946.3735623987
4	80210	26165.544954979981	4945.6340902187
4	80217	26170.254093058916	4950.0327549365
4	80240	26181.68866938761	4948.4450928671
4	80440	26256.131539842575	5022.048325356
4	80452	26258.156660493725	5020.9513744339
4	80457	26259.383492251498	5015.8635067448
4	80462	26264.936011554955	5012.4443213351
4	80469	26267.935958325805	5013.6490840435
4	80488	26277.150365321236	5015.9788963904
4	80552	26293.396007788901	5030.6053237691
4	80557	26296.151333965449	5030.8990091194
4	80564	26300.318383991248	5035.0533995412
4	80579	26303.891529862259	5037.8601364314
4	80653	26330.407387742054	5053.8060946104
4	80660	26334.188740829562	5051.7095431314
4	80683	26351.168463844615	5050.9606443115
4	80744	26368.85501817243	5060.9560159457
4	80756	26376.513951217934	5067.0144118489
4	80816	26396.522549081885	5086.5225234878
4	80829	26400.2115047539	5085.0680768983
4	80867	26405.219860656515	5083.1745962588
4	80872	26405.988807473706	5081.8710592401
4	80877	26406.117280874927	5075.982935724
4	80882	26409.566335144005	5078.8763932271
4	80902	26417.027821346903	5081.1402364417
4	80968	26432.624638082386	5088.8374492173
4	80977	26436.688872564116	5086.6242935151
4	80984	26438.78160314064	5087.5713284553
4	80994	26439.622661003857	5082.9592994799
4	81001	26443.332171591409	5081.1354057012
4	81013	26446.041097905372	5082.5028237196
4	81032	26458.038881432756	5073.2672790164
4	81399	26567.0120947146	5180.7897633509
4	81410	26571.6003256297	5180.7896428338
4	81415	26571.709514060539	5160.2305653116
4	81420	26572.244369351483	5160.5960860881
4	81427	26573.086542429019	5139.2171107916
4	81440	26576.888854476342	5142.7529857467
4	81447	26578.932649071807	5135.0959316422
4	81452	26582.759064333389	5122.780815303
4	81465	26591.778802976324	5124.5378469945
4	81498	26598.545507206747	5130.6933209972
4	81653	26641.947546351219	5172.0336915374
4	81664	26645.874170887715	5174.1169356867
4	81686	26653.279720878605	5169.1993935394
4	81786	26684.286243669523	5178.8817524101
4	81792	26686.306457820198	5179.3941009337
4	81799	26688.643849243487	5181.1534281443
4	81911	26725.932308671713	5213.7739017612
4	81916	26726.260651759318	5206.5045594108
4	81923	26726.934393614674	5199.6425989487
4	81953	26732.987439501808	5197.9495425089
4	81966	26738.206760800003	5193.0542629662
4	82031	26760.687514816945	5203.1435697782
4	82038	26762.758256841442	5199.2519329323
4	82066	26767.952639983626	5202.1739129132
4	82074	26769.729852880427	5202.5628399999
4	82091	26775.364664188694	5207.2976181746
4	82148	26794.298508520685	5224.1131134887
4	82251	26825.610168198543	5253.8493810264
4	82276	26835.411919727045	5260.6237003778
4	82286	26838.199075412973	5255.7866198848
4	82297	26844.988197661273	5253.1487825133
4	82304	26846.301591048614	5252.0403504198
4	82316	26846.772000994347	5244.6114292556
4	82331	26849.687409508596	5245.7839907669
4	82345	26851.77746049226	5247.5281767907
4	82360	26853.227608996796	5248.0027144427
4	82379	26857.831876998125	5247.685609071
4	82390	26863.431524243685	5248.9779302898
4	82411	26866.028723180757	5249.0705288815
4	82421	26870.100684011939	5244.4294581597
4	82439	26871.649861322056	5244.5817110723
4	82451	26873.120010857297	5234.9761498084
4	82485	26895.309244981772	5253.8374264841
4	82504	26906.958153904078	5258.25490719
4	82511	26908.268627986154	5259.1866799159
4	82517	26910.091089040865	5259.9970849898
4	82524	26917.620258136126	5265.7933101367
4	82531	26919.709486237503	5267.1880673996
4	82548	26929.915975249411	5259.6687161999
4	82587	26937.964222442115	5253.4770887256
4	82645	26961.766939281323	5271.208582978
4	82657	26965.974820963227	5274.4126837595
4	82694	26982.778933932261	5286.8782644895
4	82744	26996.313874318993	5289.6644136027
4	82753	26999.324222896255	5292.2538815834
4	82777	27013.367826919446	5304.0923877929
4	82782	27020.85260101985	5309.4252072762
4	82787	27023.418486779826	5308.5971093999
4	82792	27025.37163020658	5308.8903342409
4	82797	27032.051237434303	5313.2853088078
4	82804	27035.599383890967	5316.6889135593
4	82817	27039.892301302082	5319.2347225657
4	82832	27043.363214919894	5322.039526112
4	82843	27045.716818778565	5322.202628163
4	82850	27046.669514381409	5322.839991782
4	82857	27049.015652046568	5316.1686556936
4	82868	27050.530715888837	5312.5749392362
4	82875	27052.92360294126	5303.822868167
4	82893	27061.026306574619	5310.6282918042
4	82929	27067.22443842878	5316.7152484792
4	82957	27073.033718037379	5312.578399466
4	82965	27074.511769608916	5310.2271435647
4	82970	27074.593600044064	5304.6776031161
4	82987	27083.381219901436	5310.5456961559
4	83007	27084.738312603596	5311.3797402773
4	83020	27090.13111785409	5314.8502549204
4	83186	27143.245317568898	5367.7762958912
4	83709	27331.615950731916	5544.2748727045
4	83719	27334.711161875523	5540.4014593499
4	83733	27342.139170676994	5546.4917790416
4	83751	27355.7761848243	5559.8203363324
4	83838	27385.295241712621	5588.7322510951
4	83845	27386.213490241121	5584.8246462508
4	83854	27390.566655106377	5580.5681944246
4	83873	27392.807765691863	5580.6052677724
4	83894	27396.298607765135	5580.2855517297
4	83909	27402.481557631972	5576.1552543425
4	84006	27436.168073696732	5605.718864392
4	84017	27437.321153656793	5593.162383519
4	84024	27442.275611786046	5596.614000688
4	84046	27451.813846382206	5588.9560141408
4	84568	27608.829460488504	5745.4169894304
4	84574	27609.046231148447	5743.812727164
4	84579	27609.095481680587	5727.7596050502
4	84601	27620.399459454044	5726.006457863
4	84689	27638.815870035238	5729.126984059
4	84697	27639.191776727655	5722.7411447988
4	84718	27649.993126550919	5726.3679748159
4	84762	27664.990152596727	5733.236244423
4	84768	27666.310542562051	5728.0608065129
4	84777	27669.140685531271	5726.9109605155
4	84848	27684.652277991131	5735.0496423364
4	84860	27687.228072830954	5734.7269947336
4	84868	27689.089739211986	5733.5281140161
4	84873	27689.250761563941	5729.996561991
4	84880	27689.971568977007	5730.4283812174
4	84895	27695.276370411257	5732.525216008
4	84943	27704.590827665315	5733.3547405336
4	84949	27713.276507382455	5728.3617194546
4	84954	27715.318518829682	5730.1504237485
4	84965	27727.42390690076	5738.6748672866
4	84997	27734.11230745576	5730.6170290572
4	85009	27740.270715317039	5724.6271851895
4	85015	27741.503257289204	5713.4508528461
4	85020	27741.70359853455	5711.4570371652
4	85025	27742.363925709804	5710.5938247388
4	85032	27746.421527533109	5711.2096310259
4	85048	27752.114630650568	5714.4756711578
4	85061	27754.325854423243	5708.7965058108
4	85069	27757.525629476827	5706.8496630946
4	85076	27757.695424070717	5704.5330371705
4	85081	27759.504142519022	5702.1650662847
4	85088	27762.069159976026	5702.4742893485
4	85105	27768.458708707265	5694.7201214922
4	85118	27776.166162205164	5699.2490550828
4	85130	27781.189954753015	5699.065613717
4	85175	27793.796077721776	5710.4760384637
4	85198	27801.60339318878	5713.5864387822
4	85205	27803.791450133894	5696.663303582
4	85212	27804.88051573251	5691.7869031454
4	85227	27809.173024608524	5691.5083810638
4	85324	27841.364362806897	5721.8789845462
4	85334	27842.565211260924	5718.1072096632
4	85352	27850.90787524976	5723.9124816041
4	85357	27853.407554393245	5717.091818675
4	85364	27854.35490222022	5715.9423245882
4	85371	27856.898381074466	5717.3359783093
4	85384	27860.889584047292	5701.1795148427
4	85389	27863.572271819754	5702.5633221535
4	85410	27878.083782324715	5715.1069670666
4	85659	27950.907799209389	5787.0036490438
4	85667	27955.347972424112	5784.3324229931
4	85686	27963.072205839278	5789.1068569793
4	85691	27963.550020024384	5779.2821715142
4	85696	27963.934103219699	5776.8985258261
4	85703	27969.075239559227	5774.5450328873
4	85717	27972.697869443446	5776.7452317369
4	85733	27981.230648901353	5781.71813324
4	85838	28011.994378031951	5808.5542678194
4	85850	28015.374413186518	5806.8985815397
4	85866	28017.500905931595	5800.921513891
4	85879	28018.356768085364	5798.2045569357
4	85897	28019.40021581711	5798.6473231353
4	85904	28020.632798852495	5794.154578603
4	85914	28028.93799053736	5796.872845889
4	85933	28036.923066307461	5799.9919853197
4	85942	28039.143758900576	5799.8393294773
4	85953	28044.074732342994	5800.4938908472
4	85965	28050.17271612057	5802.9471462639
4	85981	28052.717699701946	5799.9446765786
4	85986	28052.945977388919	5789.1425017416
4	85992	28056.630566226241	5790.8811062604
4	86005	28067.876426255945	5788.1809228151
4	86041	28078.278864526727	5787.3544090771
4	86066	28090.83664337472	5793.6620696628
4	86183	28125.624724692771	5810.8261197176
4	86207	28136.337758269685	5813.9927894862
4	86417	28202.203248317374	5873.7663489272
4	86422	28202.386727435081	5868.7828903719
4	86428	28203.749116833282	5862.5846253495
4	86434	28205.496552143475	5862.1346916565
4	86443	28210.17391376179	5866.3805713467
4	86468	28217.28431064107	5858.9886844244
4	86475	28220.416554668139	5858.6342735689
4	86480	28220.951763737821	5858.9919481014
4	86487	28225.894243467017	5856.7981542245
4	86492	28227.354020660087	5854.5958391749
4	86499	28230.235942939554	5855.5497609565
4	86524	28236.036602047828	5856.0946370373
4	86536	28244.001040440969	5855.7958389115
4	86541	28247.166288746972	5854.1733914961
4	86550	28249.5842456851	5854.183214739
4	86572	28254.214458929978	5857.6233560262
4	86577	28255.280999568613	5858.1957444059
4	86582	28255.758344502995	5827.7471310983
4	86591	28264.632693504591	5810.9571083934
4	86695	28304.154559953496	5847.4379446891
4	86706	28309.615914495184	5844.767607805
4	86726	28312.161141673542	5846.943659017
4	86918	28371.974934224765	5906.4138124337
4	86939	28376.070800970095	5900.3107961334
4	86944	28381.32718460122	5902.9227206974
4	86949	28384.31593758363	5877.683266107
4	86958	28388.614742482038	5881.2590402618
4	86971	28392.715755628009	5881.8825749476
4	86985	28396.337043518007	5884.1983573046
4	86990	28396.509759999968	5883.8869055522
4	86996	28401.068607620799	5884.9822091962
4	87003	28402.821738083215	5882.2599146393
4	87014	28404.599158298199	5883.90886526
4	87019	28405.866073068117	5883.0402925832
4	87024	28408.957490317994	5876.5094468133
4	87046	28415.750588753947	5881.7180873018
4	87176	28456.681801143097	5908.5796552321
4	87197	28461.60151598831	5904.2114017196
4	87202	28464.056727269184	5899.6398190389
4	87207	28465.000381269161	5891.3734566133
4	87212	28465.580686017912	5884.5541198616
4	87221	28467.955578720674	5885.5111387437
4	87230	28471.30945737085	5886.8332186127
4	87240	28472.327472203382	5882.5683595312
4	87248	28476.926184620314	5884.4399988823
4	87266	28485.964480030579	5890.8858712999
4	87286	28489.546243756646	5888.054735826
4	87292	28490.879203607013	5888.0707256116
4	87301	28491.786342834364	5885.7384684446
4	87329	28508.685790000287	5899.8589410939
4	87340	28509.509707594064	5892.5199858304
4	87345	28509.714117071119	5878.6429912771
4	87351	28510.351582088294	5876.2669903261
4	87356	28510.40316755006	5875.6101637865
4	87365	28513.544747513145	5877.1349993596
4	87384	28518.462915514393	5878.5416788464
4	87389	28520.671021301592	5864.4305007847
4	87398	28525.427255507179	5863.9887152104
4	87414	28535.531856417657	5861.3505991022
4	87424	28536.514671351221	5860.1541648874
4	87432	28537.865115150311	5844.3571845191
4	87444	28540.864948731064	5830.6795589384
4	87455	28542.339925279957	5825.4755674271
4	87474	28546.140116292942	5826.8553162211
4	87484	28549.208050239273	5801.897796284
4	87494	28551.188276621417	5796.3991534521
4	87503	28558.583652112019	5797.1940137742
4	87531	28566.757070093117	5803.5081507369
4	87538	28567.473979773889	5788.7262565052
4	87563	28570.087786238568	5787.4830725111
4	87588	28574.21519683684	5790.8753367761
4	87593	28575.967218797663	5768.7924218664
4	87603	28582.403108947476	5772.06499241
4	87624	28590.028188631022	5778.9529443401
4	87848	28663.550630791173	5838.2663308526
4	87924	28680.587994674057	5853.5221165067
4	87949	28684.145257461607	5847.5058368541
4	87954	28686.822354803822	5847.8939595922
4	87961	28688.53797799067	5847.5329747765
4	87972	28690.568916466624	5849.4226594467
4	87980	28691.292451263617	5842.8356647549
4	87992	28693.425859775259	5838.186455935
4	88001	28697.511152835816	5831.5154740404
4	88031	28708.129813563786	5824.2537600119
4	88078	28721.538233101301	5837.2300290214
4	88092	28724.92873293875	5830.1628578357
4	88097	28726.975752855654	5830.9851061942
4	88104	28728.577797666898	5830.5673112189
4	88116	28732.948586804874	5822.6622305657
4	88137	28744.582818203473	5831.1667010682
4	88207	28767.951915443736	5854.3214896534
4	88248	28776.04219158639	5854.5630206205
4	88345	28808.305422839958	5882.5098058695
4	88353	28811.990620044529	5878.9971975244
4	88373	28816.29713859248	5881.8223724
4	88378	28816.976963370033	5859.558367933
4	88383	28819.218175679451	5861.4769217301
4	88390	28825.463954943947	5865.1617806996
4	88401	28830.605170852295	5862.4237165231
4	88576	28891.394435308536	5915.2234863754
4	88592	28893.912309810118	5915.0735773476
4	88597	28894.399825438054	5908.335924584
4	88603	28895.117117223691	5896.1640678071
4	88615	28899.191209284987	5897.3707844977
4	88722	28938.961566413253	5935.9317398862
4	88733	28945.858233562424	5931.1124298829
4	88738	28946.268898637278	5918.912073404
4	88743	28946.298715620196	5914.2213293229
4	88748	28946.315067793133	5911.7116709056
4	88753	28954.628763948797	5919.9376968925
4	88758	28955.777741788166	5909.2052096714
4	88767	28959.583264812951	5911.1972186377
4	88781	28970.105622093963	5920.8845858111
4	88813	28982.454574921419	5930.8466761651
4	88849	28992.014475796854	5933.0976783952
4	88862	28997.832694797623	5938.524885093
4	88898	29013.357822881871	5952.5819633447
4	88907	29016.059865538192	5950.5049351966
4	88914	29017.199764212694	5950.6187754297
4	88931	29021.497773094978	5943.548938345
4	88951	29024.565530405092	5945.1967564207
4	88962	29028.405841674511	5947.1084985482
4	88979	29033.242015412318	5947.3506436589
4	88986	29034.046380498745	5939.5361438335
4	88996	29036.13505471344	5922.455598877
4	89023	29044.311543379474	5930.1406329676
4	89032	29048.456583384247	5930.6486159107
4	89042	29049.026355533153	5922.9805358972
4	89053	29052.048176589944	5918.2022771824
4	89104	29072.94525735214	5926.2192076839
4	89192	29094.912174958728	5927.5059604836
4	89202	29099.999485586123	5922.8389438174
4	89216	29105.065583232493	5920.994622231
4	89281	29128.310533614173	5933.2940284855
4	89349	29142.896440425981	5946.2434489346
4	89358	29147.244726893343	5944.0871027083
4	89372	29153.825375080874	5946.2536244608
4	89395	29160.407274077465	5948.99536299
4	89401	29161.439686876077	5936.6551654613
4	89406	29164.162659616608	5934.8010670651
4	89415	29167.134075517445	5932.4249529751
4	89545	29202.361739400697	5966.160480106
4	89556	29204.290816415849	5964.5081606731
4	89563	29211.084426791518	5969.6834661011
4	89585	29219.338621309827	5969.7502630593
4	89592	29220.762750240321	5969.527782325
4	89650	29225.749500357054	5965.278547406
4	89655	29226.81432697096	5964.0902416265
4	89660	29227.055351795722	5955.5868651497
4	89668	29229.171785911356	5948.4336098724
4	89778	29247.176418050329	5965.1115915069
4	89785	29247.379608272312	5963.4687855858
4	89794	29252.255972334194	5966.2398284109
4	89867	29282.506525290818	5992.6980484924
4	89876	29287.718481566707	5996.8177219516
4	89898	29295.247267251629	6004.0645746454
4	89930	29300.383163251469	6007.5398286149
4	89947	29306.091045526352	6011.3934351315
4	90014	29328.158552540627	6015.0629226232
4	90020	29328.2565994566	6012.0519003303
4	90031	29330.77994446474	6005.7000361158
4	90048	29337.077899869807	6009.6724705697
4	90079	29342.707996642528	5989.3018019675
4	90084	29342.932462075398	5981.7954399348
4	90091	29344.765815391178	5981.0516116398
4	90096	29348.248328710563	5984.120582288
4	90105	29353.951666037046	5988.6380082173
4	90110	29354.60503621814	5986.7308946588
4	90117	29365.452750239607	5992.977894972
4	90122	29367.176749566542	5981.8482029648
4	90133	29374.592852461727	5982.5604519738
4	90152	29383.232929078119	5989.2611383227
4	90181	29389.444822363472	5952.5896976152
4	90210	29400.99027947257	5961.5501620821
4	90227	29405.308278539012	5958.0363480035
4	90244	29408.926793269566	5955.4223055888
4	90253	29413.516793942301	5953.8005384453
4	90271	29419.749158176561	5957.4262939463
4	90284	29424.916858476471	5961.8668247934
4	90349	29444.11012962941	5981.0031764075
4	90410	29459.019685307642	5991.7036152041
4	90415	29459.12208736847	5988.8456326391
4	90423	29460.054385148765	5963.6839183098
4	90445	29467.843703758063	5968.2504981416
4	90452	29469.872711500737	5963.5873342998
4	90463	29476.831825865925	5969.2859119428
4	90491	29480.483953809202	5965.2618839119
4	90499	29484.130429293402	5955.8907947849
4	90505	29485.125411080386	5954.4234556355
4	90510	29485.412770783268	5952.9082191867
4	90518	29490.162453596627	5956.4547525621
4	90536	29502.277705049174	5964.3730523069
4	90553	29504.283361525363	5962.1965338799
4	90588	29514.731468576685	5971.0323624613
4	90598	29516.968989930588	5972.582622262
4	90608	29520.560516878265	5967.7896413285
4	90615	29523.959172650805	5970.9769676265
4	90620	29525.380973641608	5971.9705053827
4	90625	29529.47744266735	5970.3232282702
4	90634	29532.028103468006	5971.0606440379
4	90647	29536.822434985985	5967.2505259711
4	90665	29543.626329349596	5955.6275983726
4	90675	29548.098458834172	5959.3587237529
4	90694	29552.674691759166	5961.7300566553
4	90699	29554.811847702628	5960.8676353741
4	90706	29558.00761671865	5957.5914669323
4	90739	29567.74426331742	5964.0131454102
4	90744	29568.840124991794	5964.5354210462
4	90751	29574.287901988039	5964.0195417428
4	90775	29583.262771809759	5972.6880199993
4	90784	29586.975497485258	5972.6479948018
4	90789	29587.456442379435	5969.5263348249
4	90803	29592.758198837153	5971.4145456058
4	90835	29602.985767257299	5980.3347751639
4	90840	29603.93118590767	5979.0709917961
4	90845	29604.8012044002	5964.6022271244
4	90850	29605.832789603394	5964.8340299408
4	90859	29612.739643692955	5971.3913753022
4	90895	29627.429342056586	5982.352250702
4	90996	29653.165998524648	6006.2333904318
4	91015	29657.215209018538	6008.4535599196
4	91025	29660.367171055257	6003.9869936409
4	91033	29663.142216522876	5999.0917467064
4	91045	29665.047281969175	5999.3481341599
4	91076	29675.160260407224	6000.5273839639
4	91081	29675.4124816346	5993.941300848
4	91092	29678.34373352894	5985.570215739
4	91111	29683.231476900937	5989.0605654748
4	91118	29686.001149050276	5991.3828021659
4	91143	29701.526505340302	6005.2601239676
4	91148	29701.710812500964	5998.1186055001
4	91153	29702.492085041705	5997.6412178703
4	91161	29704.415264946875	5979.8510868562
4	91168	29705.696530181832	5980.8773231421
4	91173	29706.071583469467	5980.1313739643
4	91178	29707.761671789882	5979.2781841646
4	91193	29712.147889416005	5977.700395656
4	91617	29864.485793181343	6126.2080214843
4	91628	29866.088369286171	6125.9514343678
4	91637	29871.05660532322	6130.2859743997
4	91661	29878.752509444383	6136.1012719177
4	91674	29879.873799103585	6124.2899382996
4	91703	29885.112624262691	6121.8284362323
4	91708	29885.314779276235	6115.2696049046
4	91721	29894.481752779184	6123.981911357
4	91752	29903.273401693928	6132.4215329077
4	91805	29926.667834175649	6150.3546976616
4	91999	29985.117363014647	6202.7804829071
4	92004	29985.256428038204	6194.674815212
4	92009	29985.337411925135	6182.3315588532
4	92033	29996.18863501175	6191.8207209527

