version 2
run Third-n5-4-20191016-17:04:50-12832
attr configname Third-n5
attr datetime 20191016-17:04:50
attr experiment Third-n5
attr inifile omnetpp.ini
attr iterationvars ""
attr iterationvarsf ""
attr measurement ""
attr network org.omnetpp.queueing.Pizza
attr processid 12832
attr repetition 4
attr replication ""
attr resultdir results
attr runnumber 4
attr seedset 4
param **.PS.maxInventoriedPS 5
param **.U1.interArrivalTime exponential(4s)
param **.U2.interArrivalTime exponential(6s)
param **.PS.serviceTimeForInventoryU1 exponential(1.4s)
param **.PS.serviceTimeForInventoryU2 exponential(1.4s)
param **.PS.serviceTimeDirectU1 exponential(1.8s)
param **.PS.serviceTimeDirectU2 exponential(1.8s)
param **.PS.probabilityProducing 0.8
param **.CS.serviceTimeU1 exponential(2.3s)
param **.CS.serviceTimeU2 exponential(2.3s)

vector 0 Pizza.EntryQueueU1 queueLength:vector ETV
attr interpolationmode sample-hold
attr title "queue length, vector"
vector 1 Pizza.CS queueLength:vector ETV
attr interpolationmode sample-hold
attr title "queue length, vector"
vector 2 Pizza.EntryQueueU2 queueLength:vector ETV
attr interpolationmode sample-hold
attr title "queue length, vector"
vector 3 Pizza.sink lifeTime:vector ETV
attr interpolationmode none
attr title "lifetime of arrived jobs, vector"
attr unit s
vector 4 Pizza.sink lifeTimeU1:vector ETV
attr interpolationmode none
attr title "lifetime of arrived jobs, vector"
attr unit s
vector 5 Pizza.sink lifeTimeU2:vector ETV
attr interpolationmode none
attr title "lifetime of arrived jobs, vector"
attr unit s
0	0	0	0
0	18	16.81811321791	1
0	25	20.827284776736	2
0	27	22.816068472439	3
0	28	24.754643265525	2
0	36	26.4546592831	3
0	37	26.935284384012	2
0	42	28.253094860062	1
0	47	28.346459291708	0
0	53	30.584994257107	1
0	56	32.949878724683	2
0	57	32.974235808912	1
0	63	33.2615025692	2
0	64	33.419093434926	1
0	70	33.997060192283	2
0	75	36.097054925617	3
0	76	37.68531503658	2
0	83	41.833058720178	1
0	89	42.773567405906	0
0	101	44.267379382732	1
0	104	44.412665252554	0
0	121	46.149752571133	1
0	124	46.897124818865	0
0	167	63.778596566047	1
0	168	64.009718947426	0
0	189	67.400871412955	1
0	190	71.512642752469	0
0	206	74.250599814574	1
0	207	74.39036402793	0
0	229	77.835313657826	1
0	230	79.662906948057	0
0	236	81.226491768736	1
0	238	83.753820951268	0
0	244	83.902165187749	1
0	246	85.395669554988	0
0	260	88.10649811322	1
0	261	91.798711272868	0
0	293	101.834728420441	1
0	294	107.140511265048	0
0	307	110.21028141418	1
0	312	112.889340913234	2
0	314	113.132079795235	3
0	317	114.199977711062	2
0	323	115.049409565912	1
0	329	115.614116210627	2
0	332	117.715348048822	3
0	333	118.28772919674	2
0	343	124.859897744474	1
0	349	128.074468070456	0
0	361	128.450087173693	1
0	363	131.584916573313	2
0	368	136.405684442168	1
0	375	136.776044034905	2
0	377	138.166353841961	1
0	382	138.499236900193	0
0	391	139.579963000548	1
0	393	141.496008737072	0
0	422	150.568821911905	1
0	425	152.938722639553	0
0	437	153.901626692286	1
0	440	154.411036495172	2
0	442	155.440843199941	3
0	443	157.940424578486	2
0	449	161.504412940763	1
0	455	162.349264196731	0
0	461	162.51499862728	1
0	463	163.152047958812	0
0	482	169.856993124515	1
0	484	170.238240248257	2
0	485	170.293424437657	1
0	491	174.753628055833	0
0	497	174.92020273324	1
0	499	177.083380026251	0
0	536	187.063955610139	1
0	537	187.167075161184	0
0	546	189.420006712489	1
0	551	191.408145067531	2
0	553	193.012144730248	1
0	558	193.213694115503	0
0	597	210.10353197283	1
0	600	211.138154468253	0
0	606	211.364378093296	1
0	611	212.43441666478	2
0	612	215.715870478922	1
0	621	217.360407640543	2
0	622	217.363096207153	1
0	629	220.52261718027	2
0	631	220.758246730148	3
0	633	221.215363823523	4
0	635	224.398787551177	5
0	636	224.456038997065	4
0	642	224.77863490175	5
0	645	225.69282427209	6
0	649	228.553627592636	7
0	650	231.962545491666	6
0	655	232.206281253133	5
0	668	238.635114278064	4
0	673	240.615257581708	3
0	686	243.456678270673	4
0	688	244.329423672075	5
0	689	244.771643076606	4
0	697	245.761492479921	3
0	705	246.264730651813	4
0	706	247.688593556008	3
0	712	248.479043528285	2
0	720	250.30860925223	3
0	722	250.750169561914	4
0	724	252.294965076194	5
0	727	254.492232527496	6
0	729	254.872441460415	7
0	733	258.334267344713	6
0	739	258.383372893245	7
0	740	259.136433361766	6
0	746	260.317854708559	5
0	752	260.322365124533	6
0	753	260.406349460872	5
0	762	261.791603939063	6
0	763	262.572676655998	5
0	770	263.067337509306	4
0	776	263.880200757212	5
0	778	265.084155572272	4
0	783	265.451182397668	3
0	788	266.787226632425	2
0	793	267.078657953154	1
0	800	270.633397803966	2
0	804	271.757928857496	3
0	807	272.506712149526	2
0	813	273.568013088587	3
0	814	273.718068257636	2
0	824	280.590840199067	1
0	831	282.93338604052	0
0	852	286.225540178348	1
0	861	290.746785943822	2
0	864	292.712805748256	1
0	871	293.32393912682	2
0	877	295.612862390817	3
0	879	296.88512245784	4
0	880	297.077180673156	3
0	885	297.714888005177	2
0	891	298.468002044261	3
0	893	298.941203792439	4
0	897	300.217048221992	5
0	899	300.222475387394	6
0	901	300.731454641549	7
0	903	302.371729049219	6
0	910	303.832774353854	7
0	911	304.049379229722	6
0	917	304.794508305661	7
0	918	305.713238776173	6
0	924	307.616090971352	5
0	931	308.679639009431	4
0	936	308.851918144501	3
0	941	309.152347100326	2
0	946	309.395896728108	1
0	951	309.546881760394	0
0	957	312.231980566739	1
0	958	313.002851833484	0
0	982	324.026884222553	1
0	987	326.175852330361	2
0	992	331.775626178266	3
0	994	332.099463368003	4
0	995	332.879992029129	3
0	1001	333.652579754361	2
0	1007	333.763744922657	3
0	1010	334.886210257043	4
0	1017	340.788465778921	3
0	1024	341.243042070947	4
0	1028	345.431006442991	5
0	1029	345.497843964102	4
0	1034	345.814737567102	3
0	1040	347.31583869204	4
0	1041	347.317388068334	3
0	1050	348.694506611849	4
0	1052	348.871486688178	5
0	1058	352.796310016856	6
0	1060	355.8192423175	7
0	1061	356.623723721883	6
0	1067	358.58077660182	5
0	1075	359.21920579502	6
0	1076	359.959544717541	5
0	1082	359.962682751159	6
0	1087	362.405603248678	5
0	1093	363.962759332324	4
0	1099	366.21489179826	5
0	1102	368.734968113081	6
0	1103	370.80466755406	5
0	1109	370.862258751386	6
0	1113	371.906524901384	5
0	1120	373.191971487845	6
0	1122	374.702886720417	7
0	1123	376.8030978081	6
0	1130	379.176471247793	7
0	1131	379.342157962148	6
0	1141	382.089006044447	5
0	1147	384.352516105261	4
0	1156	386.84069166814	5
0	1160	391.832148024355	4
0	1165	393.983190726702	3
0	1177	400.069571365492	4
0	1179	400.117543181786	5
0	1180	400.496496303889	4
0	1187	403.445866414497	5
0	1191	406.022738876344	6
0	1193	406.541523118907	7
0	1195	406.954245117566	8
0	1197	407.410882557974	9
0	1198	407.998273438826	8
0	1206	410.422751811814	7
0	1213	411.724453896419	8
0	1215	411.981638258435	9
0	1216	416.099585026703	8
0	1222	416.705806108974	7
0	1228	416.8083070811	8
0	1229	417.002258134078	7
0	1235	417.04565904066	8
0	1237	418.786533268418	7
0	1247	423.055163068233	6
0	1254	424.381964701817	7
0	1257	429.7317022736	8
0	1259	430.47352122173	9
0	1261	431.660872238129	10
0	1263	432.464810804031	11
0	1264	435.01859490972	10
0	1269	435.234033031161	9
0	1274	435.342763356845	8
0	1288	440.367251555933	9
0	1290	442.379904695844	10
0	1291	442.972554503934	9
0	1298	446.946336674346	8
0	1304	447.885627428659	9
0	1307	449.569690656147	10
0	1309	450.12206939678	11
0	1313	450.565444671183	12
0	1314	451.521247287472	11
0	1320	451.604279497988	12
0	1322	452.118846492692	13
0	1324	452.983512824154	14
0	1325	453.214750939891	13
0	1333	454.689496140312	14
0	1335	456.472112054461	13
0	1342	457.15943273822	14
0	1347	463.588824057665	15
0	1349	463.848784990197	16
0	1351	465.265936147409	17
0	1352	466.018039585059	16
0	1357	468.374417493374	15
0	1363	468.826931063437	16
0	1364	469.175683905532	15
0	1370	469.19245433109	16
0	1372	471.688762892357	15
0	1377	473.654090742247	14
0	1386	474.291233977195	13
0	1393	475.142347587268	14
0	1394	476.437486620763	13
0	1402	477.871458117383	14
0	1406	479.811962185486	15
0	1407	481.977312439347	14
0	1413	483.490641027528	13
0	1419	483.69899451088	14
0	1422	486.14717494985	15
0	1424	487.1525792557	16
0	1428	491.679520193684	15
0	1434	492.461174891626	14
0	1439	494.100789496665	13
0	1449	495.819830725633	14
0	1450	497.865314757509	13
0	1456	498.326124026637	14
0	1458	499.672810966684	15
0	1459	500.01974912096	14
0	1467	505.106074293733	13
0	1474	507.088604299959	12
0	1480	509.757231393598	11
0	1487	511.913288210792	12
0	1488	514.626535790071	11
0	1493	514.720863185285	10
0	1500	516.215595605767	11
0	1502	517.45910183895	12
0	1503	517.64129090681	11
0	1508	519.056364082875	10
0	1513	525.051580559819	9
0	1520	525.930935863587	8
0	1528	527.03695003251	9
0	1530	527.20173032606	10
0	1531	527.956434843282	9
0	1542	536.683551818586	10
0	1545	541.103808201554	9
0	1552	542.400733296713	10
0	1553	543.072620454155	9
0	1559	543.695501237151	10
0	1562	544.291252083607	9
0	1568	544.851225683488	10
0	1571	545.635371601883	9
0	1577	547.232986097999	10
0	1579	547.804719223481	11
0	1581	549.6580793067	10
0	1587	550.53170245401	11
0	1588	551.212938714439	10
0	1593	554.584612053918	9
0	1602	557.969425449554	10
0	1603	558.748044083043	9
0	1608	559.19355471368	8
0	1613	559.220829238254	7
0	1618	560.787105605535	6
0	1622	562.054697562918	7
0	1626	569.505035753863	8
0	1628	570.853478434459	9
0	1630	571.494085743698	10
0	1636	573.142540023942	11
0	1639	574.539893141286	10
0	1646	579.068777355045	9
0	1653	582.841827451529	10
0	1654	582.906319606489	9
0	1659	583.091126570196	8
0	1669	584.68045923873	9
0	1672	585.315029859074	8
0	1678	586.282647979316	9
0	1681	589.454641743806	8
0	1687	590.298979545161	7
0	1692	591.215641669721	6
0	1698	594.998985725859	5
0	1706	599.131885994862	6
0	1710	603.54587014477	5
0	1715	603.595092035795	4
0	1722	604.980480827071	5
0	1727	608.158111161892	4
0	1732	609.518493586498	3
0	1738	610.132687885255	4
0	1740	610.399907401248	5
0	1741	610.416965505102	4
0	1747	610.521332902632	5
0	1749	610.602649206564	4
0	1758	612.886104814223	5
0	1761	613.615283967185	6
0	1764	613.811584299685	5
0	1771	615.584540476255	6
0	1773	616.265666625069	7
0	1775	616.356323341161	8
0	1776	616.395406792008	7
0	1781	616.492061986045	6
0	1786	616.74186752682	5
0	1792	618.253698120754	4
0	1798	620.334135599007	3
0	1803	621.428097125264	2
0	1809	625.015956546204	1
0	1814	625.066985147245	0
0	1850	630.810894447344	1
0	1852	630.869186037528	2
0	1853	632.607143764708	1
0	1859	634.021862102626	2
0	1861	634.15150609771	3
0	1863	635.532130406933	2
0	1872	637.273753360394	3
0	1874	638.724906270667	4
0	1875	639.285790444047	3
0	1881	640.290937257388	2
0	1887	640.930136184399	3
0	1888	641.3633060153	2
0	1895	642.311069065099	3
0	1897	642.369871030917	4
0	1906	645.445496002002	5
0	1907	646.550182333591	4
0	1912	647.284853756011	3
0	1919	648.49977055623	4
0	1922	649.019811671849	5
0	1925	649.696302973137	4
0	1930	649.804941013247	3
0	1936	651.523925618401	2
0	1942	652.117423525779	3
0	1947	653.525583043285	2
0	1954	657.786462863134	3
0	1955	658.116730886315	2
0	1961	660.388301323561	3
0	1963	661.3067030039	2
0	1968	661.455095863807	1
0	1974	662.158883356646	2
0	1975	662.293281794998	1
0	1982	662.929272787568	2
0	1985	665.054796377048	1
0	1992	665.517256513153	0
0	2026	677.239085059048	1
0	2027	678.679985335795	0
0	2041	685.125794310467	1
0	2042	687.164937621811	0
0	2056	689.008892248322	1
0	2057	690.528866214466	0
0	2080	691.881017857574	1
0	2083	696.055762234372	2
0	2084	696.143489296788	1
0	2094	699.753392495293	0
0	2118	711.172359013553	1
0	2122	715.107927033728	2
0	2123	716.1635613407	1
0	2129	716.59299129447	2
0	2132	717.195066528435	1
0	2140	719.802066627914	2
0	2141	721.14441050067	1
0	2147	722.825721199485	0
0	2159	726.314320928366	1
0	2162	727.853493751344	0
0	2174	732.111309062751	1
0	2180	733.687167916549	0
0	2196	735.451932868741	1
0	2203	740.072538584538	2
0	2205	740.499796880591	3
0	2206	741.898260889333	2
0	2211	742.188290159045	1
0	2216	743.211521458644	0
0	2232	749.153775063776	1
0	2233	749.24549696338	0
0	2240	749.928474305874	1
0	2242	753.547511790913	0
0	2248	754.32657660189	1
0	2250	755.576321694827	0
0	2257	756.473779233914	1
0	2259	759.138657541279	2
0	2260	759.419686938137	1
0	2268	766.216671445195	2
0	2269	772.336998140321	1
0	2275	772.532499501501	2
0	2276	774.471131625548	1
0	2281	775.3866456377	0
0	2314	787.494568199216	1
0	2316	788.415629293999	2
0	2320	790.400369746268	3
0	2322	790.498761455774	4
0	2324	790.855489758457	5
0	2325	791.581861650944	4
0	2332	791.777017127435	5
0	2333	796.509226802461	4
0	2339	797.426709833158	3
0	2348	800.18967492458	2
0	2355	803.880734958588	3
0	2356	807.752258260593	2
0	2361	808.332376747665	1
0	2367	809.026047534631	2
0	2368	810.889256125463	1
0	2374	811.603847872294	0
0	2380	812.173885261742	1
0	2382	812.331336560507	2
0	2387	814.97739534693	3
0	2388	815.501775246101	2
0	2393	816.386076422352	1
0	2399	816.44434880748	2
0	2404	817.603363469545	1
0	2409	818.132108406351	0
0	2431	823.965347470612	1
0	2432	824.191094812247	0
0	2449	828.055887527601	1
0	2451	830.035432310334	2
0	2454	830.249976320384	1
0	2461	831.145955594545	2
0	2463	831.407105172886	3
0	2467	833.320559119256	4
0	2468	835.499408192697	3
0	2474	836.345126464735	2
0	2481	840.639128279449	1
0	2486	841.05339300538	0
0	2493	847.577026089985	1
0	2499	849.489014708493	2
0	2502	852.863751804718	1
0	2511	857.822562007926	2
0	2513	857.98380502872	3
0	2514	859.536370648067	2
0	2522	861.294429406309	3
0	2524	861.403023591251	4
0	2525	862.90675983396	3
0	2534	866.956824408092	2
0	2540	867.247254879976	3
0	2542	867.947676381452	4
0	2545	869.934550892037	3
0	2551	870.575628078107	4
0	2555	870.745907405989	5
0	2559	875.845738753522	6
0	2561	876.899242792507	7
0	2564	881.361409748564	6
0	2570	882.184357584919	7
0	2577	885.782151164639	6
0	2583	885.942720265185	7
0	2585	886.336892661571	8
0	2586	887.127859010558	7
0	2595	889.149398023915	6
0	2602	893.67450910603	5
0	2608	896.153624937723	4
0	2614	898.905213248551	3
0	2620	902.448779572373	2
0	2627	902.831787640091	3
0	2628	903.190699007136	2
0	2633	905.153864294545	1
0	2638	905.700029745744	0
0	2657	911.335291717844	1
0	2660	911.610534192833	0
0	2681	915.929118688241	1
0	2686	917.954081115332	2
0	2687	918.235037867281	1
0	2693	921.843455606283	0
0	2699	921.942832053323	1
0	2703	925.962836532793	0
0	2710	928.090507352541	1
0	2713	930.755192266422	0
0	2745	938.013871565765	1
0	2746	939.990399423677	0
0	2752	940.314968012115	1
0	2754	942.903537261176	0
0	2760	942.938999085036	1
0	2762	943.408633218445	2
0	2764	943.656483150206	1
0	2770	944.699360374466	0
0	2786	946.331990787329	1
0	2789	946.520923677794	2
0	2790	946.833553308631	1
0	2798	949.177508988887	0
0	2804	950.444265266898	1
0	2806	951.738094042851	0
0	2833	963.70023023655	1
0	2835	964.386434266215	2
0	2837	965.561945624612	3
0	2838	965.827852362915	2
0	2844	967.365834731991	1
0	2849	967.445526350764	0
0	2857	968.800527228206	1
0	2858	968.976761350319	0
0	2864	968.983525449571	1
0	2868	971.613099549376	0
0	2879	974.86147447938	1
0	2884	979.843490938799	0
0	2903	983.565788548294	1
0	2904	983.624805673008	0
0	2916	984.366538299607	1
0	2918	985.701826955887	2
0	2921	986.269265456019	1
0	2927	987.689200555943	0
0	2945	989.194516527774	1
0	2946	989.357426509352	0
0	2952	989.724015673707	1
0	2954	989.81603342265	2
0	2957	992.507119480415	3
0	2959	993.15574385263	4
0	2961	993.61471821181	3
0	2967	994.864942277914	2
0	2972	997.081239511913	1
0	2977	998.303231575716	0
0	2991	1001.292036925043	1
0	2992	1002.881147369942	0
0	3012	1010.343485797535	1
0	3014	1012.201171568581	2
0	3016	1013.412741737446	3
0	3017	1014.772436097781	2
0	3025	1017.384083397616	1
0	3031	1018.898006372728	2
0	3033	1019.962227560298	3
0	3035	1019.99363630624	4
0	3036	1020.856785483139	3
0	3042	1021.806667982404	4
0	3043	1021.881158367443	3
0	3056	1025.307905149605	2
0	3062	1025.68529184195	3
0	3064	1028.152757356952	2
0	3071	1028.813045965357	3
0	3074	1031.395364294815	2
0	3079	1031.627867588933	1
0	3085	1033.133231415373	0
0	3112	1039.509556960972	1
0	3115	1041.763848569658	0
0	3144	1047.273816996601	1
0	3146	1047.424228580038	2
0	3148	1050.630837243293	3
0	3153	1052.436831905685	2
0	3159	1052.788857034601	3
0	3161	1059.57449900423	2
0	3166	1060.022274791681	1
0	3171	1060.079297781342	0
0	3192	1067.033409345257	1
0	3197	1069.556457682338	0
0	3203	1071.170655230086	1
0	3206	1072.095594983511	0
0	3216	1076.729922517954	1
0	3222	1079.624238522679	0
0	3231	1081.507004742907	1
0	3233	1085.6750652886	2
0	3236	1086.364904181541	1
0	3241	1086.583995817287	0
0	3253	1089.011273592828	1
0	3254	1089.128482174169	0
0	3265	1093.488610966488	1
0	3271	1099.025250089446	0
0	3285	1101.350350757408	1
0	3286	1101.645429974706	0
0	3313	1112.530355261379	1
0	3315	1112.610529482622	2
0	3316	1112.786370474754	1
0	3321	1112.998098633643	0
0	3331	1117.036620190017	1
0	3333	1120.709718444083	2
0	3335	1120.89868340151	3
0	3336	1121.083521059428	2
0	3342	1122.856089597473	1
0	3347	1123.446493543038	0
0	3356	1127.909197584849	1
0	3359	1130.549198576555	0
0	3367	1132.99330199647	1
0	3371	1136.665544847248	2
0	3379	1138.818884141967	3
0	3380	1140.284788682002	2
0	3386	1140.370939200468	3
0	3388	1140.941663501289	4
0	3389	1141.049176332669	3
0	3396	1142.661416155105	4
0	3398	1143.832710275092	5
0	3399	1144.293428518617	4
0	3406	1145.891209098653	3
0	3412	1146.402954089018	4
0	3413	1147.543053963882	3
0	3419	1148.001197540754	4
0	3420	1148.692014885357	3
0	3431	1153.316585782952	2
0	3436	1155.012720276712	1
0	3447	1161.72585667482	0
0	3456	1163.628938653548	1
0	3457	1165.967645769291	0
0	3464	1166.529800646858	1
0	3468	1172.132554076998	2
0	3470	1173.838860927522	3
0	3471	1175.497370933764	2
0	3479	1179.754847207928	1
0	3484	1179.928676455099	0
0	3505	1191.572918688667	1
0	3511	1197.046839858287	2
0	3513	1199.117352195848	3
0	3514	1199.445528923186	2
0	3520	1200.710317400883	1
0	3527	1203.082905058663	2
0	3529	1208.168061444485	3
0	3530	1209.448489064912	2
0	3536	1210.515035993172	1
0	3541	1211.119057245191	0
0	3564	1216.215579469322	1
0	3565	1222.693890407473	0
0	3588	1231.598363609458	1
0	3590	1231.861238781683	2
0	3592	1235.113761146622	3
0	3594	1236.008867162694	4
0	3595	1236.582666568148	3
0	3601	1237.287832712302	4
0	3604	1241.875325693547	5
0	3609	1244.086945720655	4
0	3614	1245.055154443614	3
0	3621	1245.765182237339	4
0	3622	1247.428215862333	3
0	3631	1248.867185194997	2
0	3637	1249.009064816225	1
0	3644	1250.568091811209	0
0	3653	1257.468167100746	1
0	3654	1258.44284764845	0
0	3666	1260.62659429958	1
0	3667	1261.12262862098	0
0	3678	1261.407810892933	1
0	3679	1261.596186791614	0
0	3707	1268.283834736627	1
0	3712	1271.69692252155	2
0	3713	1272.205816127249	1
0	3718	1272.413971167022	0
0	3730	1275.269662678659	1
0	3733	1276.689220469379	2
0	3734	1276.888548402262	1
0	3741	1277.184160373427	2
0	3742	1277.919356565194	1
0	3748	1278.590490345686	2
0	3752	1280.867765852878	3
0	3754	1282.244336712655	2
0	3760	1283.619795563086	1
0	3765	1284.033230997341	0
0	3771	1284.172309624788	1
0	3776	1286.674072610896	2
0	3777	1288.240299785285	1
0	3783	1288.523375055607	0
0	3789	1289.166769844087	1
0	3790	1289.805826050537	0
0	3798	1291.133861895832	1
0	3801	1292.158816487732	2
0	3802	1292.688764359623	1
0	3809	1293.338313516431	2
0	3813	1295.100708294879	1
0	3819	1296.176500667264	0
0	3826	1297.867033552802	1
0	3827	1298.835477834621	0
0	3833	1299.395857412003	1
0	3834	1301.177447941151	0
0	3846	1303.979444517119	1
0	3847	1304.432723879458	0
0	3853	1304.703763721141	1
0	3861	1309.119534225618	0
0	3873	1312.968370728417	1
0	3875	1313.929652968286	2
0	3877	1316.460993337797	3
0	3878	1319.520707153564	2
0	3883	1319.751227770506	1
0	3893	1321.606296758155	0
0	3937	1330.710988771455	1
0	3938	1332.212949093925	0
0	3956	1340.878857215617	1
0	3957	1340.97157743578	0
0	3963	1341.489160502037	1
0	3964	1341.792870496501	0
0	3972	1342.713263543579	1
0	3974	1342.949175505952	2
0	3976	1343.055197749876	3
0	3977	1343.211023920283	2
0	3985	1345.515358936284	3
0	3986	1348.843803872485	2
0	3995	1353.723571265604	3
0	3997	1354.757922322355	4
0	3998	1355.701360163373	3
0	4010	1358.927838270705	2
0	4015	1359.516997852658	1
0	4020	1359.914240039485	0
0	4036	1360.623094587333	1
0	4039	1365.757562342755	0
0	4045	1366.515882926313	1
0	4047	1367.164277908281	2
0	4049	1367.181398526876	3
0	4058	1369.775611440034	2
0	4066	1374.482918334718	3
0	4074	1381.462190535448	4
0	4078	1384.04178816931	5
0	4080	1384.924103259825	6
0	4081	1384.953468312101	5
0	4088	1386.814500380623	4
0	4093	1387.016695939986	3
0	4098	1388.19564909754	2
0	4103	1388.569114841027	1
0	4108	1389.124269529346	0
0	4131	1395.473093567815	1
0	4133	1398.622277974018	0
0	4163	1409.582467110254	1
0	4165	1410.588804066084	2
0	4166	1410.710656433823	1
0	4171	1411.972129870687	0
0	4178	1414.281645728292	1
0	4186	1417.258367720894	0
0	4197	1420.049004697118	1
0	4206	1425.372215723666	0
0	4218	1426.68171269241	1
0	4221	1429.925633449523	0
0	4227	1430.025961071767	1
0	4230	1431.212101384923	0
0	4251	1435.661806524366	1
0	4253	1436.099103887422	2
0	4254	1437.399514725386	1
0	4259	1439.000671716664	0
0	4269	1442.774824992098	1
0	4273	1444.282847523399	2
0	4276	1445.147572345332	1
0	4284	1445.951926053157	2
0	4286	1446.402734167513	3
0	4289	1447.983561300943	2
0	4294	1448.124127564106	1
0	4299	1448.95727465868	0
0	4320	1451.832776491182	1
0	4323	1452.540283689789	0
0	4334	1454.103681499781	1
0	4338	1457.191386247337	0
0	4358	1460.743005520213	1
0	4360	1461.528971038203	2
0	4365	1462.819640664054	1
0	4371	1465.376828247883	0
0	4378	1466.52693592588	1
0	4380	1468.733863616365	0
0	4387	1470.644645883344	1
0	4388	1471.508539058454	0
0	4408	1477.320041068005	1
0	4412	1477.674733637187	2
0	4415	1478.958689686275	1
0	4422	1479.986172036237	2
0	4423	1486.776481184995	1
0	4429	1488.264601262976	2
0	4431	1489.122975096916	1
0	4436	1489.456110137045	0
0	4454	1492.84999339096	1
0	4457	1493.812051701528	2
0	4458	1496.714291932439	1
0	4466	1497.840286003153	0
0	4475	1498.008947000406	1
0	4478	1500.038804294052	0
0	4512	1508.650002014732	1
0	4514	1508.65349933512	2
0	4515	1509.394851907189	1
0	4521	1509.603893758702	2
0	4527	1512.642651177997	1
0	4533	1513.422380454088	0
0	4553	1517.627933667277	1
0	4558	1520.132681546921	0
0	4565	1523.263029439556	1
0	4566	1524.823695820048	0
0	4585	1531.29546318667	1
0	4587	1531.634307202405	2
0	4591	1532.868540967004	1
0	4597	1534.235892666058	0
0	4609	1536.2340092284	1
0	4610	1536.276446863503	0
0	4648	1553.180274609609	1
0	4652	1554.178367270214	2
0	4654	1555.098741175119	3
0	4655	1556.466066467233	2
0	4661	1557.132295118747	1
0	4666	1557.563101528972	0
0	4672	1557.70831747985	1
0	4675	1559.921402638909	0
0	4682	1562.394505465503	1
0	4683	1564.215891276083	0
0	4689	1564.575823820877	1
0	4690	1564.854169418106	0
0	4708	1568.879024539143	1
0	4711	1570.66245780856	0
0	4717	1570.844179885435	1
0	4723	1571.882432078958	0
0	4737	1574.644834872716	1
0	4741	1575.961144610833	2
0	4743	1578.021029510838	3
0	4745	1583.821443565006	2
0	4751	1585.329842118099	3
0	4754	1588.817519350935	2
0	4759	1588.941741165035	1
0	4764	1589.108476287601	0
0	4770	1589.172205126177	1
0	4772	1592.675469726471	0
0	4780	1593.551500573867	1
0	4782	1594.451373132382	2
0	4783	1594.64818207003	1
0	4795	1596.732137944652	2
0	4797	1598.078088135436	1
0	4803	1600.043490820832	0
0	4833	1619.915268749792	1
0	4834	1620.718649161418	0
0	4854	1631.558194795309	1
0	4855	1634.263342873606	0
0	4861	1635.134042602756	1
0	4869	1638.930073830612	2
0	4872	1639.226922770416	1
0	4880	1641.676978737458	0
0	4887	1643.027480862571	1
0	4889	1643.278639659503	2
0	4891	1643.876471831958	3
0	4892	1644.351572078762	2
0	4897	1645.141319787585	1
0	4902	1647.120126127219	0
0	4934	1654.341738167947	1
0	4935	1654.41805530332	0
0	4947	1656.540619531131	1
0	4950	1656.753642463803	2
0	4953	1658.371135346305	1
0	4960	1659.541578168218	0
0	4966	1660.927763498947	1
0	4967	1661.877043888261	0
0	4973	1662.397395354762	1
0	4974	1663.342566824122	0
0	4983	1666.306559986033	1
0	4984	1667.982573339373	0
0	4996	1669.633272751329	1
0	4997	1670.271007497011	0
0	5011	1672.374432715262	1
0	5015	1672.414764828889	2
0	5016	1672.97491307274	1
0	5025	1677.458319517276	0
0	5039	1680.569493274265	1
0	5042	1682.305380703663	0
0	5048	1682.333007240564	1
0	5054	1685.851338767634	2
0	5055	1686.66849823678	1
0	5060	1686.850953934534	0
0	5066	1686.858974732557	1
0	5069	1690.747190769418	0
0	5088	1703.464262487955	1
0	5090	1703.702319847157	2
0	5091	1703.857343347865	1
0	5097	1704.983977969834	0
0	5117	1710.57664335322	1
0	5118	1712.311683922891	0
0	5140	1718.739776390008	1
0	5141	1719.163677847337	0
0	5159	1727.668516056086	1
0	5160	1730.091786459036	0
0	5167	1730.814893972491	1
0	5171	1735.966870600417	2
0	5173	1737.553832812547	3
0	5174	1741.100978213896	2
0	5180	1741.216745970145	3
0	5181	1742.007352774746	2
0	5186	1742.410624398086	1
0	5191	1742.485071633038	0
0	5208	1749.545203436852	1
0	5212	1752.107939620042	0
0	5221	1754.748221107229	1
0	5226	1756.001663381423	0
0	5245	1760.37556155734	1
0	5246	1761.151160046782	0
0	5269	1767.422759497652	1
0	5273	1768.894323355926	2
0	5274	1769.273716889061	1
0	5280	1771.174986877175	0
0	5293	1775.573397253903	1
0	5296	1777.510543727441	0
0	5314	1782.10524892537	1
0	5317	1783.264306737376	2
0	5318	1783.283495197911	1
0	5323	1784.110654595865	0
0	5333	1784.713851314839	1
0	5335	1785.261305515743	2
0	5342	1789.336592594702	3
0	5346	1791.159442644987	2
0	5352	1791.647579360263	3
0	5353	1792.109960757689	2
0	5364	1797.459869004453	3
0	5365	1797.684345980971	2
0	5372	1800.604616601482	1
0	5378	1803.248885016072	0
0	5401	1805.848951558774	1
0	5405	1807.718871204722	2
0	5406	1809.507318223858	1
0	5411	1809.861546526507	0
0	5417	1809.951453596177	1
0	5421	1810.561029585419	2
0	5422	1810.735088198642	1
0	5427	1810.809261297739	0
0	5439	1812.157545173536	1
0	5441	1813.324629471691	2
0	5444	1815.336146455869	1
0	5455	1821.82476916335	2
0	5457	1823.362202413444	3
0	5458	1823.971695043205	2
0	5464	1824.599951737934	1
0	5471	1826.728410054859	2
0	5472	1827.13204648336	1
0	5478	1827.876696764046	0
0	5485	1828.199683413075	1
0	5487	1829.247827078225	0
0	5555	1857.223896502082	1
0	5556	1857.543904216854	0
0	5571	1863.55396829421	1
0	5573	1866.04884510587	2
0	5575	1868.321236151719	3
0	5576	1869.837625675022	2
0	5585	1873.338252131489	3
0	5587	1875.233760814018	4
0	5588	1878.107917171122	3
0	5594	1878.343729431325	2
0	5602	1881.936048451745	1
0	5610	1882.453126655488	0
0	5629	1885.696829613121	1
0	5634	1888.396578270546	2
0	5635	1889.503294166469	1
0	5640	1892.728342391513	0
0	5656	1895.899965900116	1
0	5658	1898.685662088121	2
0	5663	1902.203486737694	1
0	5671	1904.163469017407	2
0	5672	1904.694234370909	1
0	5679	1906.835593983946	2
0	5683	1910.750566755127	3
0	5686	1912.327265955789	2
0	5693	1913.738174423895	1
0	5699	1914.270661905539	2
0	5701	1915.023158201393	1
0	5710	1919.304230289013	2
0	5711	1919.656316998006	1
0	5717	1920.852507112568	0
0	5723	1921.001097337398	1
0	5724	1921.263852036397	0
0	5730	1921.683690571669	1
0	5731	1922.503280232164	0
0	5740	1923.531706761062	1
0	5744	1925.567204383966	2
0	5746	1926.756790069543	3
0	5748	1926.957351807015	4
0	5749	1930.357981251872	3
0	5754	1930.886221635225	2
0	5760	1931.99634245018	3
0	5763	1935.75260502611	4
0	5764	1935.792657108455	3
0	5770	1936.471298397109	4
0	5772	1936.764634935789	3
0	5778	1937.067093315681	4
0	5779	1939.672175670104	3
0	5786	1940.474704506809	2
0	5791	1940.984835419077	1
0	5796	1941.65511514742	0
0	5820	1945.572410266838	1
0	5822	1948.127720722952	0
0	5828	1949.117755653447	1
0	5830	1949.263016508086	0
0	5849	1951.929431968194	1
0	5850	1952.622318891616	0
0	5879	1967.732046826129	1
0	5880	1968.237061296339	0
0	5900	1975.999972045305	1
0	5902	1976.595211620194	2
0	5903	1977.151823149922	1
0	5909	1978.604136166174	0
0	5929	1981.826949428076	1
0	5931	1982.165864808716	2
0	5933	1985.949586399655	1
0	5939	1986.439362093436	0
0	5945	1986.677816674986	1
0	5946	1988.345349105325	0
0	5954	1990.241481206	1
0	5956	1991.684454267088	2
0	5958	1992.76562673226	3
0	5960	1993.329074813314	2
0	5967	1995.672663696924	1
0	5972	1995.732575908351	0
0	5985	1996.977179925468	1
0	5987	1997.886625429084	2
0	5991	1998.109531417719	3
0	5994	2000.162579618427	2
0	5999	2000.355479775024	1
0	6005	2000.4609929283	0
0	6011	2001.139675713485	1
0	6016	2003.198767505384	0
0	6044	2018.726809937581	1
0	6047	2022.066311191011	0
0	6059	2024.994191520755	1
0	6061	2025.556588894977	2
0	6062	2026.566320282978	1
0	6068	2026.913634478155	2
0	6070	2027.202751433861	3
0	6073	2029.876146321669	2
0	6078	2030.500899247475	1
0	6083	2031.003604275185	0
0	6089	2031.415792824473	1
0	6092	2033.094964834174	0
0	6110	2036.398707543299	1
0	6112	2040.036220618153	0
0	6121	2040.784544008603	1
0	6125	2044.558367390055	0
0	6136	2045.428411591313	1
0	6137	2046.415321583484	0
0	6168	2063.103692775674	1
0	6169	2063.521887786173	0
0	6184	2066.935308819479	1
0	6186	2067.885042425454	2
0	6187	2070.573886356477	1
0	6193	2074.968691042837	0
0	6217	2080.645455951512	1
0	6218	2081.29134527715	0
0	6235	2084.063125311377	1
0	6243	2087.566745920787	2
0	6246	2089.225634570403	1
0	6253	2089.836330182888	2
0	6255	2090.628739075383	3
0	6257	2091.723625541924	4
0	6258	2093.568384378849	3
0	6264	2093.749941752183	4
0	6268	2095.082610787052	3
0	6274	2095.538443747438	2
0	6280	2095.888191038556	3
0	6282	2098.745955255962	2
0	6287	2099.093344557605	1
0	6295	2099.855996496077	0
0	6301	2099.995677370537	1
0	6305	2101.933565237281	2
0	6306	2102.753957175597	1
0	6314	2103.671656499506	2
0	6315	2103.941896527023	1
0	6324	2111.495299178055	0
0	6330	2112.364111476722	1
0	6332	2112.957087891828	2
0	6335	2115.42219731773	1
0	6341	2116.021262245881	0
0	6353	2118.22053121572	1
0	6355	2118.787162555102	2
0	6357	2119.032347902622	3
0	6362	2120.916078576214	2
0	6368	2121.594265544912	3
0	6371	2122.895783518471	4
0	6372	2123.047546768637	3
0	6378	2123.260980775822	4
0	6384	2126.463917351567	3
0	6391	2131.666572206484	4
0	6393	2133.642552453115	5
0	6394	2136.023068435153	4
0	6400	2136.61684226548	5
0	6401	2136.98486673205	4
0	6410	2139.715780966298	3
0	6421	2141.801096031038	4
0	6424	2142.282842478297	5
0	6425	2143.191679835499	4
0	6431	2147.49148776218	3
0	6437	2147.731674639456	4
0	6438	2148.277360579177	3
0	6444	2149.322918717391	2
0	6451	2150.073938125551	3
0	6453	2151.756990347557	2
0	6459	2151.897840124148	3
0	6461	2156.456366101754	2
0	6467	2157.269590633618	1
0	6473	2158.221552885519	0
0	6492	2164.841035682383	1
0	6495	2169.95793537938	0
0	6507	2171.544064475232	1
0	6512	2173.51902570405	2
0	6514	2175.038690598376	1
0	6519	2176.291300710889	0
0	6525	2176.412964625735	1
0	6529	2179.766660695201	0
0	6569	2192.210753458891	1
0	6570	2194.904401102497	0
0	6592	2202.877803077192	1
0	6595	2204.893972511061	0
0	6616	2209.607868422433	1
0	6617	2211.433374482311	0
0	6624	2211.796523243211	1
0	6626	2214.948376658971	2
0	6627	2215.309517889931	1
0	6633	2216.044258376039	2
0	6634	2218.061399283819	1
0	6640	2219.543965245816	2
0	6644	2223.285878842822	1
0	6650	2223.301089744044	2
0	6651	2225.53344585045	1
0	6656	2226.155229095694	0
0	6671	2236.503113657303	1
0	6676	2244.639554489044	2
0	6677	2244.751608491446	1
0	6683	2247.270581303893	0
0	6703	2251.950172897963	1
0	6705	2253.653417776784	2
0	6707	2254.264116182224	3
0	6710	2254.688259047697	2
0	6716	2255.85345911217	3
0	6718	2255.967544958366	2
0	6726	2257.113909285271	3
0	6729	2258.778595964376	2
0	6736	2261.005122640724	1
0	6745	2262.835212369721	0
0	6759	2266.765474463084	1
0	6760	2266.988100526591	0
0	6777	2273.364965978615	1
0	6778	2275.432531855518	0
0	6813	2286.704317328368	1
0	6814	2286.784139923383	0
0	6855	2303.503701529638	1
0	6857	2304.365785992328	2
0	6858	2309.087391954248	1
0	6867	2313.801708821293	0
0	6873	2316.444087607057	1
0	6874	2316.493594442409	0
0	6880	2316.859381791437	1
0	6883	2320.943125091948	0
0	6902	2322.264473808213	1
0	6904	2326.722612023218	0
0	6916	2327.816571086702	1
0	6924	2332.04778266202	2
0	6925	2332.175295806906	1
0	6932	2332.839553911541	2
0	6933	2334.253737826196	1
0	6939	2334.322069298327	2
0	6941	2335.374541110388	3
0	6948	2338.271458715353	2
0	6954	2338.908932086666	1
0	6959	2339.432739691942	0
0	6965	2339.870138653711	1
0	6967	2340.286187055947	2
0	6969	2340.816824940437	3
0	6972	2342.274550765694	4
0	6974	2343.195751578388	5
0	6978	2344.317539780501	6
0	6980	2344.360791933902	7
0	6981	2344.944596711054	6
0	6987	2345.545764498704	7
0	6991	2348.283675178275	8
0	6992	2348.982978697365	7
0	6999	2350.904755069791	6
0	7004	2352.74663299713	5
0	7012	2356.006529438183	6
0	7015	2356.272822250011	7
0	7016	2357.689139813964	6
0	7024	2358.513383805772	5
0	7031	2359.628227931494	4
0	7038	2360.942188351671	5
0	7040	2361.433266052403	6
0	7042	2362.475153546884	7
0	7045	2363.130119410351	8
0	7047	2363.387422371527	9
0	7054	2371.012029874217	8
0	7059	2371.239401440447	7
0	7065	2371.448313994472	6
0	7071	2372.769253586537	5
0	7080	2377.020021852875	4
0	7087	2378.095170304906	5
0	7092	2381.849368104248	4
0	7097	2382.282598834977	3
0	7105	2387.953574478954	4
0	7107	2388.309449357617	5
0	7108	2388.966069668893	4
0	7114	2389.356340698152	3
0	7119	2389.879631170842	2
0	7126	2391.385120573434	1
0	7132	2392.348164308308	2
0	7134	2394.263513125299	1
0	7140	2395.669878451128	2
0	7145	2398.656999221885	3
0	7146	2400.577471474874	2
0	7153	2403.23242147777	3
0	7154	2404.757352591446	2
0	7161	2407.328947956876	1
0	7166	2407.400700060117	0
0	7181	2411.516494306853	1
0	7182	2411.904848195419	0
0	7223	2419.117003000746	1
0	7225	2419.611187066444	2
0	7230	2424.513509134528	1
0	7240	2427.300644636628	0
0	7255	2433.467412055091	1
0	7257	2433.539030082587	2
0	7260	2435.335609782972	1
0	7267	2436.818379521537	2
0	7269	2437.227907366171	3
0	7278	2444.235840368678	4
0	7282	2445.791939148157	5
0	7286	2446.237293183817	6
0	7287	2447.560137928199	5
0	7295	2449.226769406594	4
0	7300	2452.04056225375	3
0	7306	2452.0465154401	4
0	7308	2453.56383531184	5
0	7313	2456.912568899854	4
0	7319	2457.458995532414	3
0	7326	2458.94365545528	4
0	7329	2459.884160735155	5
0	7331	2462.010018779349	4
0	7336	2462.637148449934	3
0	7343	2464.190979862527	4
0	7347	2464.787429364033	5
0	7350	2465.960443908047	6
0	7352	2467.0165976282	7
0	7353	2467.208268985394	6
0	7359	2469.388338647625	5
0	7364	2470.367274505632	4
0	7370	2471.575387582835	3
0	7376	2472.255823836683	2
0	7383	2473.267952555909	1
0	7388	2473.339874821515	0
0	7415	2475.479581759642	1
0	7417	2475.839035351326	0
0	7442	2481.793207336137	1
0	7444	2481.888872954304	2
0	7448	2482.831869156353	1
0	7454	2484.371443416453	2
0	7455	2484.419698030716	1
0	7460	2484.607273541721	0
0	7466	2484.672529103384	1
0	7470	2485.465286893053	0
0	7482	2486.367266626048	1
0	7486	2488.517467607859	0
0	7507	2492.283455933011	1
0	7510	2497.176326231723	0
0	7525	2501.02219381665	1
0	7528	2502.135475979726	0
0	7538	2503.0475000889	1
0	7543	2507.809985316561	0
0	7553	2509.982667092407	1
0	7555	2510.432984184592	2
0	7559	2515.112911164356	3
0	7564	2519.932368205096	2
0	7572	2521.549762016586	1
0	7578	2525.004347810305	0
0	7587	2525.632027327344	1
0	7590	2528.338120672542	0
0	7600	2529.275677127531	1
0	7603	2531.890425158008	0
0	7613	2532.956858562889	1
0	7615	2533.990226294239	2
0	7620	2535.372624417334	1
0	7625	2535.422191469825	0
0	7646	2538.961645481798	1
0	7648	2539.576911016707	2
0	7651	2541.465153784801	1
0	7656	2542.942309251458	0
0	7670	2543.916479444066	1
0	7675	2549.229179366038	2
0	7677	2549.778985072978	3
0	7678	2551.074807393247	2
0	7685	2554.40334676261	1
0	7694	2561.41777708766	0
0	7706	2562.612537257384	1
0	7707	2567.402888259394	0
0	7714	2568.384140358704	1
0	7718	2576.90749474851	2
0	7719	2577.257596887506	1
0	7724	2577.374606118253	0
0	7741	2585.526365075189	1
0	7745	2587.818995420157	0
0	7756	2588.771905611982	1
0	7758	2588.85246263927	2
0	7760	2588.964714272429	3
0	7761	2590.251196300555	2
0	7767	2591.186880349875	3
0	7769	2591.342999451123	4
0	7775	2593.603038869267	5
0	7776	2598.458587172239	4
0	7785	2601.926605883175	3
0	7791	2602.009844828981	4
0	7793	2602.090924960265	5
0	7795	2605.299326194164	4
0	7802	2607.175199859683	3
0	7807	2607.968977358837	2
0	7813	2608.604575477169	1
0	7818	2609.453563623584	0
0	7829	2611.036620026624	1
0	7830	2611.661374332494	0
0	7850	2613.655988307569	1
0	7855	2618.190871538278	0
0	7863	2621.066594761202	1
0	7865	2621.323822569673	2
0	7866	2621.656121263749	1
0	7874	2626.305346527209	2
0	7877	2628.55355150021	1
0	7884	2628.873130193805	2
0	7891	2631.692550468083	3
0	7892	2633.237278757888	2
0	7898	2633.580032168975	1
0	7905	2635.195041236838	0
0	7917	2637.739958468699	1
0	7920	2638.325472969855	2
0	7921	2639.054231433218	1
0	7929	2641.232417712327	0
0	7950	2645.164564397112	1
0	7951	2645.407769810387	0
0	7973	2652.283659876001	1
0	7977	2653.467880442632	2
0	7978	2656.553729096582	1
0	7984	2656.746112317325	2
0	7987	2658.486968775915	1
0	7993	2660.435826575292	2
0	7995	2663.073893255717	1
0	8000	2663.287995692851	0
0	8007	2664.60446605151	1
0	8010	2665.30358331487	2
0	8012	2665.393667259331	3
0	8015	2666.277118807911	4
0	8020	2668.675038239721	5
0	8022	2669.663322602925	6
0	8024	2674.637095847219	7
0	8025	2679.01642495697	6
0	8032	2679.982828505316	7
0	8035	2681.208947540389	6
0	8041	2683.275786577042	5
0	8046	2683.646625098117	4
0	8051	2684.010699975777	3
0	8057	2684.420599032043	4
0	8058	2685.368151982328	3
0	8065	2685.972377352744	4
0	8067	2686.061624391445	5
0	8069	2688.666050065828	4
0	8074	2688.818501986957	3
0	8079	2689.767034326157	2
0	8085	2690.127344781073	3
0	8087	2691.363886419238	4
0	8092	2694.393069854982	3
0	8096	2695.206364300439	4
0	8105	2700.425860386849	5
0	8107	2701.025800943289	6
0	8109	2702.227136896373	7
0	8110	2703.700804316271	6
0	8115	2706.752626664013	5
0	8121	2707.804239471365	4
0	8129	2710.01451170962	5
0	8130	2711.515704040708	4
0	8136	2715.90878050104	3
0	8144	2719.971687319093	4
0	8146	2722.32687494449	3
0	8154	2723.068544826254	4
0	8156	2724.401545942277	5
0	8157	2724.714343414694	4
0	8163	2725.491784154994	5
0	8167	2727.105039275266	4
0	8174	2727.242882176484	5
0	8177	2728.606278698064	6
0	8178	2730.26504275138	5
0	8184	2731.528164087617	4
0	8192	2732.273213748426	5
0	8196	2734.661872096848	6
0	8197	2736.586561738889	5
0	8203	2738.978235027958	4
0	8208	2739.407027063058	3
0	8213	2739.706509820639	2
0	8219	2739.989355176976	3
0	8225	2743.995880765254	2
0	8230	2745.219237404116	1
0	8237	2747.028244856802	0
0	8244	2750.287912704169	1
0	8246	2750.329232851363	2
0	8247	2750.432191693854	1
0	8253	2751.16842408466	2
0	8254	2751.365773931683	1
0	8259	2752.779138214697	0
0	8278	2755.215183669594	1
0	8279	2755.306186108151	0
0	8285	2755.461879646977	1
0	8287	2756.287035410843	0
0	8348	2772.505093806492	1
0	8349	2774.825836140595	0
0	8365	2782.158323317456	1
0	8367	2782.250848266535	2
0	8368	2784.826605010991	1
0	8373	2785.778406035216	0
0	8384	2786.809387530986	1
0	8387	2787.659938315841	0
0	8393	2787.959761279518	1
0	8396	2788.5146283403	0
0	8408	2796.719559346729	1
0	8410	2797.303613989557	2
0	8412	2798.028245794306	3
0	8414	2798.903216554594	4
0	8415	2798.907613213323	3
0	8421	2799.38769268558	4
0	8423	2799.478846162927	5
0	8424	2800.260451424734	4
0	8432	2807.697266354662	3
0	8438	2808.291328508824	2
0	8443	2808.490253763522	1
0	8451	2809.66040032416	2
0	8452	2809.931983430887	1
0	8462	2814.421980132885	0
0	8468	2815.213731050932	1
0	8471	2815.581321793634	0
0	8501	2826.231667301065	1
0	8502	2827.468490411284	0
0	8517	2830.155229226161	1
0	8520	2832.96486391656	0
0	8527	2833.904128688319	1
0	8528	2834.258887304244	0
0	8540	2835.008987967993	1
0	8542	2838.204701483458	2
0	8544	2838.962938367221	3
0	8545	2839.410233920866	2
0	8550	2839.515074645466	1
0	8557	2841.545549223038	0
0	8591	2848.825116186012	1
0	8593	2849.74210237333	2
0	8599	2856.525399609338	3
0	8600	2857.448638959356	2
0	8609	2861.25237708248	3
0	8610	2867.073897101828	2
0	8618	2868.371567021919	3
0	8623	2870.429958796478	4
0	8624	2874.086552337754	3
0	8631	2875.624680302834	4
0	8632	2876.559726957152	3
0	8637	2878.598206511412	2
0	8643	2879.350961755322	3
0	8645	2881.139080544154	2
0	8650	2881.385136688864	1
0	8655	2881.640253752984	0
0	8661	2882.244734483604	1
0	8663	2883.363707758282	2
0	8664	2883.807742712577	1
0	8670	2884.107468651339	0
0	8676	2884.109875036616	1
0	8678	2887.382408915402	2
0	8679	2888.367386020984	1
0	8690	2893.534721818804	0
0	8707	2894.86684862761	1
0	8709	2897.096465749791	2
0	8715	2900.733682830041	1
0	8721	2901.799406766376	0
0	8733	2904.028804156822	1
0	8734	2904.572078474348	0
0	8755	2907.33615170537	1
0	8759	2909.932595678995	2
0	8767	2913.870308500948	1
0	8778	2915.205502510168	2
0	8779	2919.637960002836	1
0	8785	2920.413068508169	2
0	8787	2922.307411099581	1
0	8792	2922.349417236144	0
0	8798	2922.909558835023	1
0	8799	2922.969069423515	0
0	8830	2936.603055148321	1
0	8834	2938.790603400579	2
0	8839	2944.971142680747	1
0	8844	2948.10340333626	0
0	8852	2949.71691941587	1
0	8853	2949.740718966895	0
0	8867	2956.180248555314	1
0	8868	2960.745054545269	0
0	8880	2962.851050327957	1
0	8881	2963.249543500644	0
0	8887	2965.893411212451	1
0	8889	2967.421130512632	0
0	8899	2970.225497456767	1
0	8901	2971.635375808323	2
0	8902	2972.715598358339	1
0	8907	2972.888881378427	0
0	8940	2986.68333025907	1
0	8944	2987.131722035371	2
0	8945	2987.995348225199	1
0	8952	2988.988780858733	0
0	8969	2990.300879162339	1
0	8971	2990.369751397177	2
0	8975	2994.375154804122	1
0	8981	2995.550723681376	2
0	8983	2996.841304063632	3
0	8984	2997.030544327795	2
0	8992	2999.49602919267	3
0	8994	3001.084532228265	2
0	9002	3003.071261007868	1
0	9009	3006.152769745256	2
0	9012	3010.471637501384	3
0	9015	3012.643356779285	2
0	9020	3015.003379653372	1
0	9027	3016.670525561617	2
0	9028	3017.354149393262	1
0	9033	3017.476277441069	0
0	9060	3021.000718709518	1
0	9064	3024.812333591531	0
0	9084	3030.453454808296	1
0	9086	3031.598237350266	2
0	9087	3032.850794221541	1
0	9092	3035.918633662147	0
0	9103	3036.456689132127	1
0	9108	3037.644833459221	0
0	9123	3042.166206614271	1
0	9129	3045.324287689276	0
0	9147	3053.125645687979	1
0	9152	3055.402548487162	0
0	9182	3066.581897659229	1
0	9185	3069.074797816776	0
0	9199	3073.435071216086	1
0	9201	3073.757615983283	2
0	9202	3076.159296246799	1
0	9210	3081.282865873464	0
0	9231	3086.589867532144	1
0	9233	3087.370876095365	2
0	9236	3090.889712480477	1
0	9242	3091.20125565927	2
0	9243	3092.572309694999	1
0	9249	3093.816685870352	2
0	9251	3095.332994738933	1
0	9256	3096.029040650522	0
0	9272	3105.885950953966	1
0	9274	3105.983384276028	2
0	9275	3106.362394481725	1
0	9280	3106.421271443002	0
0	9294	3108.360011876495	1
0	9295	3108.361021207753	0
0	9323	3127.853579108966	1
0	9324	3129.043144594698	0
0	9343	3140.221776138233	1
0	9344	3140.350561602419	0
0	9353	3142.149466068382	1
0	9357	3146.308361640368	2
0	9359	3148.501012175513	1
0	9365	3149.297527799944	0
0	9383	3153.741881977732	1
0	9389	3159.813743085187	0
0	9399	3161.798111165613	1
0	9400	3162.480970176549	0
0	9409	3164.760240556549	1
0	9411	3165.729819407583	0
0	9423	3167.281124073242	1
0	9424	3167.6556335073	0
0	9431	3167.991358268577	1
0	9434	3168.612666402099	2
0	9438	3172.345346517975	3
0	9440	3172.394955987038	4
0	9442	3175.12260065004	5
0	9443	3176.591626087172	4
0	9451	3180.655295866482	5
0	9454	3181.159073356219	4
0	9459	3181.637651860428	3
0	9464	3181.88772089463	2
0	9471	3185.291546289159	1
0	9477	3185.763626675673	0
0	9515	3200.117318580521	1
0	9517	3200.366212457022	2
0	9519	3200.441114579157	3
0	9521	3201.116414251616	4
0	9523	3201.753050447787	5
0	9529	3202.066902072386	6
0	9530	3202.485459023399	5
0	9536	3203.346452657748	6
0	9538	3203.445019682141	7
0	9541	3204.486791838441	8
0	9544	3205.049848926898	7
0	9550	3207.145219066325	6
0	9559	3209.001691887578	7
0	9562	3210.698264800521	6
0	9568	3213.096016443814	5
0	9576	3213.770667658931	4
0	9583	3215.315251624431	3
0	9589	3217.332831729874	4
0	9590	3217.683179512399	3
0	9596	3218.150465241552	4
0	9597	3219.681084058502	3
0	9604	3221.682105507864	2
0	9610	3222.863814620698	3
0	9613	3223.77103995165	4
0	9614	3224.230477340388	3
0	9624	3228.364336593006	2
0	9628	3229.815777314711	3
0	9632	3230.584200814359	4
0	9638	3236.38921981667	3
0	9644	3241.388611596286	2
0	9649	3241.664560059985	1
0	9653	3242.862022102108	2
0	9657	3244.323001417426	3
0	9659	3245.002935555987	4
0	9662	3246.028482596439	3
0	9667	3246.073778061009	2
0	9674	3249.082052656317	1
0	9679	3249.110172509414	0
0	9686	3250.450102929045	1
0	9689	3251.770726150706	0
0	9721	3262.95996113095	1
0	9722	3268.450597131554	0
0	9729	3270.301694273879	1
0	9731	3270.581180015985	2
0	9733	3270.726684739101	3
0	9734	3270.961785713831	2
0	9739	3273.149768664537	1
0	9745	3273.914692177797	2
0	9747	3275.691490906937	1
0	9753	3276.392801213752	2
0	9754	3277.864512470982	1
0	9760	3278.888298550711	0
0	9766	3279.342470036958	1
0	9768	3279.737214804644	2
0	9772	3281.830347310223	3
0	9773	3283.633406946863	2
0	9778	3284.152731053135	1
0	9783	3284.421908774375	0
0	9796	3288.143003466028	1
0	9799	3290.370455478231	2
0	9804	3292.846391664075	3
0	9806	3295.092889550034	2
0	9812	3298.470774397355	1
0	9818	3299.237624349512	0
0	9830	3303.962286760058	1
0	9832	3304.546854407651	2
0	9834	3305.114547199933	3
0	9835	3307.601673948339	2
0	9842	3309.091155574137	3
0	9843	3309.678071051098	2
0	9853	3312.145719756007	1
0	9859	3315.117064537695	0
0	9895	3322.61615003941	1
0	9898	3323.642513611849	0
0	9905	3324.500156397565	1
0	9906	3325.38456197217	0
0	9923	3329.120036704458	1
0	9924	3330.105579427338	0
0	9938	3333.735699186925	1
0	9947	3334.573888810153	2
0	9950	3335.646020583986	1
0	9955	3335.69690467327	0
0	9971	3343.106266110678	1
0	9975	3345.387871474246	0
0	9995	3350.632628087502	1
0	9999	3355.011938164785	2
0	10001	3355.353973449075	3
0	10002	3355.432927684452	2
0	10007	3355.616129786072	1
0	10014	3360.924828832598	0
0	10026	3363.362722929051	1
0	10028	3363.699625463154	2
0	10029	3365.283311971133	1
0	10035	3365.918877590853	2
0	10036	3366.590854871396	1
0	10047	3370.77656952843	0
0	10053	3371.267608076717	1
0	10063	3376.482850517074	2
0	10064	3376.576781184248	1
0	10069	3376.631052707308	0
0	10075	3377.61592312419	1
0	10077	3378.898189222131	0
0	10090	3381.282291137366	1
0	10091	3381.997112451896	0
0	10097	3382.032655918575	1
0	10100	3382.420459209234	0
0	10109	3385.334971002869	1
0	10112	3390.84486944182	0
0	10135	3395.729671628575	1
0	10136	3395.808330727234	0
0	10146	3397.995788540603	1
0	10150	3400.897130017968	2
0	10151	3400.907811212101	1
0	10158	3402.492449375454	2
0	10160	3404.639526018241	3
0	10162	3405.458876382346	4
0	10164	3405.650906407495	5
0	10165	3406.813505088793	4
0	10171	3406.915264908761	3
0	10178	3408.030240648876	4
0	10179	3408.276396973067	3
0	10184	3408.386021842361	2
0	10189	3408.918455860119	1
0	10195	3409.623447304636	0
0	10214	3417.988019030674	1
0	10217	3420.517829914219	0
0	10241	3425.811420654921	1
0	10244	3428.655289674456	0
0	10269	3434.6907660715	1
0	10271	3435.80861089769	2
0	10275	3436.141537658613	3
0	10279	3438.26965523133	4
0	10280	3438.550758330296	3
0	10285	3439.675230181849	2
0	10292	3443.571597334402	1
0	10298	3445.753496835618	0
0	10336	3459.018134791055	1
0	10342	3462.272287993365	0
0	10359	3468.078391051426	1
0	10362	3470.165171438019	0
0	10369	3472.656981165537	1
0	10375	3475.61438799176	0
0	10381	3475.682205414524	1
0	10383	3476.399213453462	2
0	10384	3476.557063423793	1
0	10396	3482.906514012343	2
0	10398	3484.236634087481	3
0	10400	3488.448696714867	4
0	10402	3489.17393913525	5
0	10403	3491.782626240817	4
0	10409	3492.256566001753	5
0	10411	3492.607829231078	6
0	10414	3493.88480790658	5
0	10421	3493.983760064905	4
0	10427	3495.271140448454	5
0	10428	3495.352237228646	4
0	10437	3496.132833827838	5
0	10440	3497.664223695366	6
0	10448	3503.506589580018	5
0	10454	3508.350141197594	4
0	10461	3510.089199164733	5
0	10464	3510.676627911714	4
0	10470	3512.040951254663	3
0	10476	3514.390482312549	4
0	10478	3514.560385978791	5
0	10480	3515.955442159898	4
0	10485	3516.878737192927	3
0	10492	3518.432027704557	2
0	10498	3518.655047446377	3
0	10505	3522.298832529662	4
0	10506	3522.452448693437	3
0	10512	3525.989078638871	2
0	10517	3527.151088629255	1
0	10523	3528.02037298363	2
0	10525	3529.391514326925	3
0	10526	3531.32220261439	2
0	10531	3533.881566985285	1
0	10536	3534.022009161783	0
0	10558	3539.192030272135	1
0	10561	3541.720729078792	0
0	10575	3550.140899676933	1
0	10577	3550.196757837066	2
0	10580	3550.900063238007	1
0	10585	3551.274867019342	0
0	10592	3553.267124519753	1
0	10594	3556.305475116558	2
0	10595	3556.746949341594	1
0	10601	3557.419318988372	0
0	10607	3557.565241964979	1
0	10609	3557.81319834229	0
0	10652	3572.870637546639	1
0	10656	3577.98165232547	2
0	10660	3580.283899602417	3
0	10662	3580.807757316222	4
0	10663	3584.567293894899	3
0	10669	3585.537316584459	2
0	10676	3589.143454782986	3
0	10679	3590.766731957058	2
0	10686	3593.664030451822	3
0	10688	3595.283124256502	4
0	10691	3596.049321830385	3
0	10697	3596.692405041523	4
0	10698	3596.780912651611	3
0	10704	3598.036649339854	4
0	10705	3598.216666604486	3
0	10712	3599.293487569453	4
0	10720	3604.88219564031	3
0	10726	3606.059824889088	2
0	10732	3606.35559218102	1
0	10739	3607.382644968727	2
0	10742	3612.154248624886	3
0	10743	3612.446969502453	2
0	10748	3613.071399005816	1
0	10754	3613.60806210893	2
0	10757	3614.043973854795	1
0	10764	3615.108906828994	2
0	10768	3615.744502316766	3
0	10769	3615.782431812687	2
0	10775	3618.754699469027	1
0	10782	3620.78393705766	2
0	10789	3621.899575111407	3
0	10790	3622.20792192017	2
0	10799	3625.702559694527	3
0	10800	3626.541253707157	2
0	10806	3630.350027806807	1
0	10811	3630.742673618116	0
0	10826	3637.345566904121	1
0	10828	3640.012688827466	2
0	10829	3643.785587541438	1
0	10835	3643.913161024355	2
0	10836	3644.526332125259	1
0	10843	3645.2238592891	2
0	10844	3647.211687445901	1
0	10852	3649.775793521707	2
0	10854	3651.296449380635	3
0	10856	3653.481648371987	4
0	10857	3654.618729919484	3
0	10863	3654.738979155663	2
0	10868	3655.151588120358	1
0	10874	3657.964468048408	0
0	10912	3668.958056679897	1
0	10913	3670.256018309234	0
0	10921	3673.299879695969	1
0	10923	3674.498979623816	0
0	10941	3680.363630035861	1
0	10944	3683.0851106202	0
0	10969	3696.5576202849	1
0	10971	3696.996349347532	0
0	11002	3706.791080260044	1
0	11005	3709.777531666286	0
0	11021	3718.168627813557	1
0	11023	3719.192280406078	2
0	11027	3720.027754744412	3
0	11029	3720.288261822178	4
0	11031	3721.208675946772	5
0	11032	3723.177207732535	4
0	11038	3725.817228446303	3
0	11044	3726.89248785508	2
0	11050	3728.033397715433	1
0	11056	3728.039569128421	2
0	11058	3729.134248618405	1
0	11063	3729.157764758765	0
0	11069	3729.515684355136	1
0	11076	3731.411280315368	2
0	11078	3731.551907292119	1
0	11084	3733.3473286972	0
0	11109	3736.170741636378	1
0	11110	3736.261948068271	0
0	11124	3738.181527380914	1
0	11126	3738.811625333546	2
0	11127	3739.73745406229	1
0	11132	3741.138298053887	0
0	11148	3746.29721594777	1
0	11154	3750.848362437591	2
0	11158	3751.645545290931	3
0	11161	3754.170356162608	2
0	11169	3755.288177774236	1
0	11175	3757.247022142139	0
0	11198	3760.824938218342	1
0	11200	3761.607306996537	2
0	11203	3765.516599015554	1
0	11209	3767.325562423329	2
0	11213	3770.713575165101	1
0	11218	3771.923840971317	0
0	11259	3781.719120049092	1
0	11261	3781.83884190939	2
0	11266	3783.168050980489	3
0	11267	3786.971077089143	2
0	11272	3787.189779391707	1
0	11277	3787.925773116064	0
0	11289	3794.308320260862	1
0	11295	3796.228144236003	2
0	11299	3798.894116342581	3
0	11301	3800.007739914904	4
0	11302	3801.91085334847	3
0	11313	3804.806796882773	4
0	11318	3806.298406523348	3
0	11327	3807.375425674784	2
0	11333	3808.279598790302	1
0	11339	3809.29834491799	2
0	11342	3809.70577917664	3
0	11344	3812.314049103292	2
0	11349	3812.549114868459	1
0	11356	3818.94912005607	0
0	11369	3822.195556673848	1
0	11371	3823.883699936796	2
0	11377	3829.74306993654	3
0	11379	3830.64886728517	4
0	11380	3832.059764688311	3
0	11386	3832.436884320754	4
0	11387	3832.952351129314	3
0	11393	3833.252258083685	4
0	11394	3833.467605445966	3
0	11401	3834.120772940331	2
0	11407	3834.470473826968	3
0	11408	3835.055784397963	2
0	11416	3836.72824116209	3
0	11417	3836.972449190999	2
0	11424	3837.86338623044	3
0	11428	3838.392069052378	4
0	11432	3839.618549487835	3
0	11438	3839.882264337573	4
0	11439	3840.017783478132	3
0	11447	3840.941675254123	4
0	11450	3844.213889334533	3
0	11459	3845.600810968774	2
0	11470	3846.982777030571	3
0	11471	3847.047066400823	2
0	11477	3847.925977842693	1
0	11484	3849.002679419584	2
0	11486	3849.193639434222	3
0	11492	3852.778299937326	4
0	11493	3853.515745138226	3
0	11500	3855.557881149356	4
0	11502	3858.547328578497	5
0	11506	3863.00018894343	6
0	11508	3865.709111865093	7
0	11511	3869.769847032912	6
0	11517	3871.620031728152	5
0	11524	3872.278583408462	6
0	11526	3872.918395772209	7
0	11528	3873.004273917275	8
0	11531	3874.247445637717	7
0	11541	3875.909047252507	6
0	11550	3876.124630207802	7
0	11551	3878.537348730945	6
0	11560	3880.198128684893	5
0	11566	3881.006785882014	6
0	11567	3881.577189870498	5
0	11574	3883.995443582458	4
0	11580	3885.967626642729	5
0	11584	3886.784205029279	6
0	11586	3887.700638523176	7
0	11587	3887.949733192146	6
0	11595	3890.318853401224	7
0	11596	3890.51786528141	6
0	11604	3891.913996006899	7
0	11607	3894.096591962354	6
0	11613	3894.289367324794	7
0	11615	3894.343360630204	8
0	11617	3895.537447308276	7
0	11625	3896.60506786383	8
0	11626	3897.438840681343	7
0	11632	3897.854298977352	6
0	11637	3898.563684835386	5
0	11648	3900.767146844019	6
0	11649	3903.38657136251	5
0	11656	3905.257302565537	6
0	11657	3906.026575873803	5
0	11663	3906.429345905175	6
0	11666	3907.607177266595	7
0	11670	3908.93590498694	8
0	11671	3909.119120675044	7
0	11678	3910.380753929543	6
0	11687	3912.149330223798	5
0	11693	3913.227808746888	6
0	11694	3913.598328665749	5
0	11702	3913.903042277942	6
0	11706	3916.21988829922	7
0	11708	3918.235740064375	8
0	11709	3918.282156332875	7
0	11717	3920.836271819159	6
0	11722	3920.97635258774	5
0	11728	3921.352828587384	4
0	11735	3923.664769032278	3
0	11744	3925.456529155626	2
0	11750	3926.346815869268	3
0	11753	3927.492359978883	2
0	11758	3928.469754502851	1
0	11764	3929.969418756938	0
0	11770	3931.538164174757	1
0	11771	3933.713400882844	0
0	11787	3936.872947143192	1
0	11794	3942.023214531153	0
0	11807	3946.540014679746	1
0	11810	3947.011780669732	2
0	11812	3947.118858578344	3
0	11816	3948.799028758117	4
0	11820	3950.199515803144	3
0	11825	3950.487795980304	2
0	11832	3951.73995317954	1
0	11840	3952.873883121366	2
0	11841	3954.372070612395	1
0	11846	3954.708075793551	0
0	11863	3960.521269035736	1
0	11864	3961.38964317712	0
0	11883	3965.036634414192	1
0	11885	3965.533604307538	2
0	11889	3965.994582878456	3
0	11891	3967.770711412953	2
0	11899	3970.098718919033	3
0	11902	3971.515879335147	2
0	11908	3972.503465745034	1
0	11913	3972.61798069692	0
0	11934	3981.810770679422	1
0	11939	3983.006749702189	0
0	11988	4003.516377491023	1
0	11994	4010.510131400839	0
0	12001	4011.829187652616	1
0	12003	4012.638396931477	2
0	12004	4016.496718347998	1
0	12009	4017.57830067903	0
0	12016	4018.941883552032	1
0	12019	4019.745250171849	2
0	12020	4019.883322369601	1
0	12026	4019.982225364961	2
0	12030	4021.194119915649	3
0	12032	4021.442643374644	4
0	12036	4024.39878109131	5
0	12037	4026.031545513544	4
0	12044	4028.082607156623	3
0	12049	4028.440816483812	2
0	12056	4028.652397668507	1
0	12062	4028.837192331791	2
0	12064	4029.221552787381	1
0	12070	4029.825446023243	2
0	12072	4030.025757919168	3
0	12073	4030.731003985183	2
0	12077	4031.508465028325	3
0	12081	4031.672273471236	4
0	12083	4031.823770792319	5
0	12089	4037.062439352296	4
0	12095	4038.175081038737	5
0	12100	4039.897274628036	4
0	12106	4040.599282467114	5
0	12107	4040.736726100291	4
0	12116	4041.211289665638	3
0	12123	4041.80035424537	2
0	12129	4041.898367086601	3
0	12130	4042.973357012917	2
0	12136	4043.850929669483	3
0	12137	4044.287952780742	2
0	12141	4044.336361715883	3
0	12146	4046.989741926316	2
0	12151	4050.963400692512	1
0	12159	4054.17648700623	2
0	12162	4056.048162461609	3
0	12163	4056.478446428994	2
0	12168	4057.641087232539	1
0	12174	4058.79318293791	2
0	12178	4060.857702557017	1
0	12183	4062.29679234174	0
0	12209	4069.380241393772	1
0	12210	4069.380653414442	0
0	12216	4070.159079268658	1
0	12220	4074.004329619937	0
0	12242	4078.529663305539	1
0	12245	4081.244320588508	0
0	12253	4083.1096757663	1
0	12255	4083.427813661452	0
0	12267	4090.615649072305	1
0	12269	4090.639875307529	2
0	12273	4091.434699656071	3
0	12275	4091.904146307492	4
0	12280	4094.996035577173	3
0	12288	4101.336569176401	2
0	12296	4103.504200837703	3
0	12297	4103.608494030176	2
0	12303	4103.675228239355	3
0	12305	4103.777301594869	4
0	12308	4106.680132298953	5
0	12309	4107.218585569276	4
0	12315	4107.657633091384	5
0	12317	4107.771725237742	6
0	12321	4110.749663767496	5
0	12327	4111.112806220107	6
0	12329	4114.313487385411	5
0	12334	4114.335140204563	4
0	12339	4114.691847408565	3
0	12345	4115.623248564886	2
0	12350	4116.529087518693	1
0	12356	4116.910301302397	2
0	12357	4116.993111964977	1
0	12364	4117.472038939643	2
0	12365	4117.660177618372	1
0	12372	4119.902425531402	0
0	12389	4126.646124984599	1
0	12391	4127.500828506588	2
0	12392	4128.205879816275	1
0	12398	4129.139057618374	0
0	12407	4132.063578714866	1
0	12409	4132.172540749346	2
0	12411	4132.214315108612	3
0	12413	4137.0018876477	2
0	12419	4137.959244783315	1
0	12424	4138.889803174563	0
0	12431	4140.057749312342	1
0	12432	4140.681537978594	0
0	12454	4145.471166105158	1
0	12457	4147.50020660572	0
0	12466	4149.650470992688	1
0	12472	4151.013453412707	2
0	12480	4154.197830939626	3
0	12482	4154.35288491919	4
0	12487	4159.269112383818	3
0	12492	4161.621336007329	2
0	12497	4163.088733429406	1
0	12507	4166.3122672251	0
0	12517	4168.061686255644	1
0	12519	4169.547897049521	2
0	12521	4169.802699244129	3
0	12522	4170.071630597724	2
0	12529	4172.231845895747	3
0	12537	4180.594605448384	2
0	12542	4180.897945056988	1
0	12556	4188.326773155135	2
0	12558	4188.684495585068	3
0	12561	4193.328097359266	2
0	12567	4193.727216600348	1
0	12573	4194.209243349601	2
0	12577	4196.563999471453	1
0	12584	4196.793054276464	0
0	12613	4204.432979973966	1
0	12615	4204.85281939674	2
0	12617	4204.885553103689	3
0	12618	4205.20033282888	2
0	12625	4208.12907649742	3
0	12627	4208.445339072919	4
0	12630	4211.081500372944	3
0	12635	4211.307521360009	2
0	12643	4214.361074652131	3
0	12645	4214.4058083988	4
0	12646	4214.70233676735	3
0	12652	4215.11339697413	2
0	12658	4215.981756344195	1
0	12666	4216.584062368035	2
0	12670	4218.538693161691	1
0	12675	4218.849425811776	0
0	12686	4219.207840685439	1
0	12687	4219.27406450788	0
0	12705	4222.851085918828	1
0	12711	4226.152550270101	0
0	12743	4239.012461615642	1
0	12744	4240.046106972715	0
0	12762	4242.260406321949	1
0	12763	4243.856885719952	0
0	12783	4248.811303946793	1
0	12785	4250.949261583647	2
0	12787	4251.157771102863	3
0	12790	4253.129874349691	2
0	12796	4254.959750638754	1
0	12803	4256.39528097125	0
0	12835	4265.80339612674	1
0	12836	4266.37029967027	0
0	12842	4267.043523905491	1
0	12844	4269.700249939408	2
0	12846	4269.951208455737	3
0	12847	4271.493680787473	2
0	12854	4271.868787220148	1
0	12861	4273.957018470479	2
0	12862	4274.582290932926	1
0	12867	4277.025415509367	0
0	12873	4278.360995271237	1
0	12877	4279.695691435938	2
0	12878	4279.707420636783	1
0	12885	4280.206525237753	2
0	12887	4280.37188985319	1
0	12895	4281.964230068043	0
0	12918	4295.381599081167	1
0	12919	4297.85597197167	0
0	12936	4303.523046576349	1
0	12940	4308.213267118592	2
0	12941	4309.12457623989	1
0	12946	4309.204529110536	0
0	12956	4315.753434972421	1
0	12960	4316.806696937584	2
0	12964	4319.258079706036	1
0	12970	4319.593238164791	2
0	12974	4320.938724571808	1
0	12980	4321.091876028346	2
0	12985	4325.141337715651	3
0	12986	4326.142372780946	2
0	12991	4326.225306548009	1
0	12996	4327.105250823049	0
0	13002	4327.549214273101	1
0	13003	4327.92679408078	0
0	13009	4328.284751123513	1
0	13011	4329.621196750341	0
0	13021	4332.104475556767	1
0	13023	4332.953971382971	0
0	13029	4333.043196059034	1
0	13035	4335.055102279095	2
0	13036	4341.936932621969	1
0	13045	4347.944223454546	2
0	13047	4348.453453474642	3
0	13048	4350.428897390095	2
0	13053	4351.316035373808	1
0	13059	4354.702867219172	2
0	13063	4355.966989972469	1
0	13070	4359.175486649347	0
0	13111	4371.561470312709	1
0	13119	4373.5262720722	2
0	13120	4374.80102910498	1
0	13127	4376.67235225002	2
0	13129	4376.731753005875	3
0	13133	4377.593794900118	4
0	13137	4380.3645409874	5
0	13139	4380.554063664811	6
0	13141	4381.946434345377	7
0	13142	4383.504133498301	6
0	13149	4384.360290161161	7
0	13150	4388.286591709361	6
0	13157	4389.321165760912	7
0	13158	4389.615434998169	6
0	13164	4390.646015687959	5
0	13172	4397.742753737338	4
0	13178	4399.749005507848	3
0	13185	4400.906091471183	4
0	13186	4401.738619820501	3
0	13191	4402.375635023701	2
0	13197	4403.433100256228	1
0	13205	4408.885502837047	2
0	13208	4410.50124590374	1
0	13215	4413.640179391168	0
0	13223	4415.196566651965	1
0	13225	4415.43484427946	2
0	13228	4422.823549214939	1
0	13234	4424.272487238423	0
0	13240	4424.808662375625	1
0	13241	4424.96789158514	0
0	13248	4426.213884581956	1
0	13250	4426.258015362546	2
0	13251	4426.881877608738	1
0	13256	4428.470298982193	0
0	13273	4430.849463066352	1
0	13281	4434.992665035884	0
0	13293	4437.52359373451	1
0	13294	4440.29248084852	0
0	13313	4442.825885445068	1
0	13314	4445.440514049135	0
0	13321	4446.845091198467	1
0	13322	4447.249050053638	0
0	13334	4454.124770429573	1
0	13335	4454.849365737336	0
0	13361	4461.207130482733	1
0	13363	4462.330618272109	2
0	13364	4463.129154463981	1
0	13370	4463.860579810773	0
0	13376	4464.312160401049	1
0	13378	4465.162264917513	2
0	13381	4465.722087424466	3
0	13382	4467.289158408478	2
0	13390	4470.189630601853	1
0	13396	4472.929000531847	0
0	13404	4474.206302318077	1
0	13409	4482.35568842195	0
0	13415	4483.296887331517	1
0	13416	4483.53196930627	0
0	13439	4487.903122743554	1
0	13441	4489.345441674112	2
0	13443	4490.006669454022	3
0	13445	4493.25120777371	4
0	13446	4493.293542278119	3
0	13452	4493.836731971588	4
0	13455	4494.363165445828	5
0	13459	4498.327932454178	6
0	13462	4500.249898004693	5
0	13467	4500.609794448923	4
0	13474	4503.38086171661	3
0	13480	4504.410305512917	2
0	13485	4504.44275929917	1
0	13490	4504.700399813705	0
0	13504	4507.045711967123	1
0	13507	4508.112588087729	2
0	13509	4509.531885666779	3
0	13511	4512.982020295786	2
0	13520	4516.003930756967	3
0	13521	4516.348415665568	2
0	13526	4517.415775681498	1
0	13531	4517.519449047981	0
0	13551	4519.876295555486	1
0	13553	4520.576035699534	2
0	13556	4523.294381359431	3
0	13558	4528.545975549924	2
0	13564	4530.020354337839	1
0	13571	4531.197894315804	2
0	13573	4531.999102241448	3
0	13575	4532.960325236016	4
0	13576	4533.439881048252	3
0	13585	4534.34006042316	4
0	13589	4537.004013049138	3
0	13601	4540.003904293185	4
0	13605	4541.844384225844	5
0	13609	4543.982827541108	6
0	13610	4545.043925930474	5
0	13615	4546.114755226417	4
0	13620	4547.295292642855	3
0	13631	4552.633509801389	2
0	13637	4552.816215451835	1
0	13645	4555.579383360611	2
0	13646	4556.637354884488	1
0	13653	4557.355121648294	2
0	13655	4558.749670872335	3
0	13657	4560.051370349114	4
0	13658	4560.826673515119	3
0	13663	4561.171087792059	2
0	13668	4561.284640298566	1
0	13674	4561.904117363444	0
0	13707	4570.835474248733	1
0	13708	4572.862438597382	0
0	13745	4583.539706027447	1
0	13747	4585.651943474246	2
0	13749	4588.118474445063	3
0	13757	4591.056017318152	4
0	13758	4595.357704507771	3
0	13764	4595.58855714136	2
0	13769	4595.640102955302	1
0	13774	4595.888607087654	0
0	13780	4595.890095455337	1
0	13783	4596.885885989458	2
0	13786	4600.488802004927	3
0	13791	4603.244326498718	2
0	13799	4608.756064589427	1
0	13805	4609.190793482517	2
0	13808	4613.841862223332	3
0	13809	4614.582003922533	2
0	13814	4616.312768724786	1
0	13820	4616.998781057804	2
0	13821	4617.112555499378	1
0	13829	4618.114907197708	2
0	13833	4619.840942266863	3
0	13836	4622.593281514113	4
0	13837	4622.718991521129	3
0	13844	4624.901384208514	2
0	13850	4625.739337593835	1
0	13860	4630.665945318295	2
0	13865	4631.589936839748	1
0	13870	4632.064629889566	0
0	13884	4634.255921463448	1
0	13886	4634.417940988215	0
0	13892	4634.588731048858	1
0	13894	4634.60105376617	2
0	13898	4637.046837322621	3
0	13899	4637.147536671929	2
0	13905	4637.447840344613	3
0	13907	4638.675398069605	4
0	13911	4643.838308871091	5
0	13913	4645.648625557883	6
0	13914	4646.611122917981	5
0	13920	4646.920030646872	6
0	13922	4648.15581326992	7
0	13923	4648.950010987774	6
0	13932	4651.844514637379	5
0	13937	4651.995079156346	4
0	13943	4652.059831942064	5
0	13947	4654.489506919234	6
0	13948	4655.212804690821	5
0	13954	4657.096594611651	6
0	13957	4657.695304542671	7
0	13958	4657.991915939784	6
0	13965	4659.626840653736	7
0	13966	4661.775712850818	6
0	13973	4664.666660082097	5
0	13979	4665.295716770976	6
0	13980	4665.769665117788	5
0	13988	4667.318579664569	4
0	13995	4669.726441754519	3
0	14000	4669.761238139546	2
0	14005	4670.508962758719	1
0	14012	4673.567086675789	0
0	14019	4674.561853706644	1
0	14023	4678.714612165165	2
0	14026	4678.934172677409	1
0	14032	4679.649167273744	2
0	14034	4681.342834840137	1
0	14039	4682.821933770692	0
0	14047	4683.521555107284	1
0	14053	4689.09471567089	0
0	14059	4691.093606755184	1
0	14061	4691.127517372191	2
0	14062	4691.19100091024	1
0	14069	4693.82651211095	2
0	14070	4693.830605190312	1
0	14078	4694.367493150383	2
0	14079	4696.079997849967	1
0	14088	4697.214073043757	2
0	14090	4697.694728668632	3
0	14093	4701.447216575499	2
0	14098	4701.767067776565	1
0	14103	4702.009439808219	0
0	14121	4707.762632831763	1
0	14122	4708.141008026014	0
0	14138	4713.064407488892	1
0	14142	4713.625917130365	2
0	14143	4713.824642790951	1
0	14149	4713.867362359758	2
0	14150	4714.021784262781	1
0	14162	4715.069483478208	2
0	14163	4716.280096423909	1
0	14175	4718.407933762137	0
0	14181	4719.167413056882	1
0	14183	4720.576495918473	2
0	14185	4720.943444125445	3
0	14186	4721.080473520757	2
0	14193	4721.459189856992	1
0	14199	4721.467702712293	2
0	14202	4723.719853299203	1
0	14210	4725.139412201951	2
0	14212	4725.9547389983	1
0	14217	4726.448743225338	0
0	14223	4726.904900366969	1
0	14225	4726.945547387211	2
0	14227	4727.265562389564	3
0	14229	4729.574142662999	4
0	14230	4730.829242507364	3
0	14236	4731.274565257563	4
0	14238	4732.001662238453	3
0	14245	4732.793424295195	4
0	14248	4733.180555445231	3
0	14254	4735.942837355274	4
0	14256	4737.210270676033	3
0	14265	4738.768937558757	4
0	14268	4739.121844738678	5
0	14269	4740.488963882486	4
0	14278	4745.341535646693	5
0	14279	4746.286510492699	4
0	14284	4746.813117581138	3
0	14290	4747.468012742037	4
0	14291	4749.009336843996	3
0	14297	4749.291240298756	4
0	14300	4751.880308109976	5
0	14303	4752.978323977534	6
0	14305	4755.737628138286	5
0	14312	4756.640832632708	6
0	14314	4757.015194174738	7
0	14316	4758.357836691795	8
0	14317	4759.619525877209	7
0	14324	4762.44071310226	8
0	14325	4764.031537656546	7
0	14330	4767.513376311351	6
0	14337	4768.441972004413	7
0	14342	4775.180101130397	8
0	14344	4776.385534614334	9
0	14345	4777.943357714679	8
0	14352	4779.12029488864	9
0	14353	4779.292483261357	8
0	14359	4780.212069513521	7
0	14365	4781.161161162841	8
0	14371	4784.266012375982	7
0	14377	4784.387734662473	8
0	14378	4784.690466894641	7
0	14383	4784.991627597824	6
0	14388	4785.154183153036	5
0	14396	4787.549886930463	6
0	14402	4788.577814134555	7
0	14403	4791.978489007039	6
0	14413	4799.236432740269	5
0	14418	4799.628107208112	4
0	14423	4800.128213824409	3
0	14431	4802.975207153651	2
0	14436	4803.941025603137	1
0	14440	4805.391485809008	2
0	14443	4806.825279122238	1
0	14447	4807.044516987218	2
0	14449	4807.135449519719	3
0	14451	4807.266516746177	4
0	14454	4808.178116674327	3
0	14460	4809.400397790982	2
0	14470	4812.732675393471	1
0	14477	4815.524090040201	0
0	14490	4818.746965184171	1
0	14495	4820.288723699404	0
0	14506	4820.462872140657	1
0	14510	4820.855167146723	0
0	14529	4825.673533361486	1
0	14530	4825.942275753856	0
0	14536	4828.031523878149	1
0	14539	4829.633980193047	2
0	14543	4833.595114818856	3
0	14544	4834.155985342021	2
0	14551	4834.921167317234	3
0	14552	4836.055729654882	2
0	14558	4838.926696882318	1
0	14565	4840.483826497373	2
0	14566	4840.555325881191	1
0	14573	4843.172706423106	0
0	14580	4844.575499413917	1
0	14581	4846.13779167699	0
0	14601	4849.49481875111	1
0	14604	4852.711154013407	0
0	14610	4852.820800796009	1
0	14612	4854.619331579716	2
0	14613	4856.92471254052	1
0	14619	4857.282320797916	2
0	14621	4857.415725268966	3
0	14625	4861.304548536719	4
0	14627	4861.704711364122	5
0	14630	4863.564125913349	4
0	14635	4863.703262991677	3
0	14640	4864.746509195624	2
0	14645	4865.497043146806	1
0	14650	4869.014802801664	0
0	14663	4871.62600455563	1
0	14671	4874.175738382773	2
0	14673	4874.255268011545	3
0	14675	4874.390483848198	4
0	14681	4877.912762318047	5
0	14682	4877.991459134092	4
0	14689	4879.111899779657	3
0	14698	4881.229093062119	4
0	14700	4881.919157257052	5
0	14702	4884.721478062875	4
0	14709	4885.162916135659	5
0	14710	4885.462586427385	4
0	14716	4885.517620376607	5
0	14722	4889.18934718733	4
0	14727	4889.387267302376	3
0	14734	4892.670919071521	2
0	14740	4892.729880938252	3
0	14741	4892.736080132237	2
0	14747	4892.784868800189	3
0	14748	4892.874373487474	2
0	14756	4894.696633345404	3
0	14757	4894.903067853328	2
0	14763	4895.472155316512	3
0	14766	4897.067999210844	4
0	14768	4898.004270419207	3
0	14775	4900.049619594666	4
0	14777	4900.258578531867	5
0	14778	4900.658576419065	4
0	14783	4901.294825359532	3
0	14791	4904.338463925247	2
0	14797	4905.458452846279	3
0	14799	4907.759857716228	2
0	14805	4908.906847315769	1
0	14812	4913.352062027183	0
0	14818	4913.880795481838	1
0	14819	4915.408759716714	0
0	14858	4923.558907989896	1
0	14860	4923.765932782096	2
0	14865	4925.514347942542	3
0	14867	4926.219597533866	4
0	14868	4926.286282730783	3
0	14875	4930.094700658362	2
0	14882	4932.172823758592	1
0	14888	4932.784501694821	2
0	14890	4935.777148482662	1
0	14901	4939.616745642112	0
0	14908	4940.161973115989	1
0	14911	4944.048062455402	0
0	14930	4948.566642205864	1
0	14931	4949.481177297406	0
0	14944	4951.14747977471	1
0	14945	4951.255776186861	0
0	14951	4951.881153459478	1
0	14952	4952.660597311117	0
0	14968	4955.155302520035	1
0	14970	4957.753508740765	2
0	14973	4958.094218262621	1
0	14982	4960.225120444718	2
0	14983	4960.525346103087	1
0	14989	4961.028583179398	2
0	14992	4963.791844018937	1
0	14998	4963.987545509375	2
0	15000	4964.929384117563	1
0	15006	4966.460074385931	0
0	15014	4968.014151827614	1
0	15016	4969.576743925764	0
0	15022	4969.815870406983	1
0	15023	4970.852330001917	0
0	15032	4972.210621249912	1
0	15035	4972.359323531151	2
0	15037	4973.197724887265	3
0	15039	4974.290235906653	2
0	15045	4974.836241787346	3
0	15047	4975.237568677191	4
0	15054	4983.622186357901	3
0	15060	4986.443552447614	2
0	15066	4986.78318687867	3
0	15071	4989.263377335029	4
0	15075	4989.306781826974	5
0	15078	4993.225530862415	4
0	15087	4997.497676192324	3
0	15092	5002.757084067947	2
0	15097	5002.870546391126	1
0	15102	5002.886037961451	0
0	15114	5004.094575013991	1
0	15120	5009.145557977798	2
0	15121	5009.709767941264	1
0	15128	5011.1325933826	2
0	15129	5012.36333990586	1
0	15134	5013.645044785665	0
0	15145	5014.863864010235	1
0	15148	5018.713803427892	2
0	15150	5020.404461818527	1
0	15156	5021.000674127513	2
0	15162	5022.328335225338	1
0	15171	5024.779131726187	0
0	15198	5034.998576405697	1
0	15200	5035.796211039455	2
0	15201	5037.305322671388	1
0	15208	5037.463457134186	2
0	15218	5042.316439164363	3
0	15219	5043.569629320465	2
0	15224	5045.275856443933	1
0	15230	5045.682637767851	2
0	15236	5046.820251879944	3
0	15237	5046.917314968472	2
0	15242	5046.949611317149	1
0	15247	5047.209232368536	0
0	15256	5048.582049093699	1
0	15262	5051.836964006222	0
0	15268	5052.920946480906	1
0	15270	5055.259011462571	0
0	15307	5063.228653079402	1
0	15308	5063.418448976318	0
0	15322	5068.786693436396	1
0	15326	5069.25175488983	2
0	15327	5070.593898632176	1
0	15332	5074.688680364787	0
0	15338	5075.744645379424	1
0	15340	5077.167170874128	0
0	15353	5079.262205377939	1
0	15356	5082.089033273445	2
0	15357	5085.020028321887	1
0	15362	5086.043340092453	0
0	15374	5089.341327450751	1
0	15376	5090.302949353371	2
0	15378	5090.814177060006	3
0	15382	5091.299882444323	4
0	15384	5092.430550915527	5
0	15385	5096.685762140541	4
0	15396	5099.99467073031	3
0	15401	5100.349887840507	2
0	15410	5101.754119542701	1
0	15416	5102.418639554313	0
0	15443	5108.958334304672	1
0	15444	5110.217714718172	0
0	15462	5122.061301294041	1
0	15466	5125.63667469543	2
0	15467	5125.811547006754	1
0	15474	5126.953578551855	2
0	15476	5128.267935323337	3
0	15477	5128.460684878315	2
0	15486	5130.178647889243	3
0	15487	5132.753358959941	2
0	15493	5133.023532068593	1
0	15498	5133.144292495237	0
0	15505	5133.882250523957	1
0	15506	5134.365062534821	0
0	15513	5134.912198388783	1
0	15515	5135.511279631862	0
0	15527	5137.868783836342	1
0	15531	5138.42115985363	2
0	15535	5142.91589934028	3
0	15536	5143.373095408321	2
0	15544	5144.826085523299	3
0	15546	5146.655108249046	2
0	15552	5148.166757130462	1
0	15557	5148.308021253262	0
0	15568	5152.134342019811	1
0	15572	5153.295889469622	2
0	15573	5155.899847784141	1
0	15582	5160.043133813275	0
0	15593	5163.62710113541	1
0	15595	5163.963976286106	0
0	15604	5165.10695727531	1
0	15607	5167.904873908407	0
0	15625	5175.74065099427	1
0	15628	5177.467854638634	0
0	15635	5178.311872095629	1
0	15637	5178.317532790442	2
0	15639	5179.211335317959	3
0	15640	5180.446045356698	2
0	15645	5181.435447813217	1
0	15653	5182.182070109731	2
0	15655	5185.811064875695	1
0	15661	5185.921888596433	0
0	15682	5190.233058101193	1
0	15688	5196.235415333285	0
0	15694	5196.448943119125	1
0	15698	5196.886182472712	0
0	15704	5197.005375954177	1
0	15709	5199.8134182572	2
0	15710	5200.274052191719	1
0	15716	5201.280794968949	0
0	15732	5205.961380170899	1
0	15733	5206.416866532988	0
0	15740	5207.07074369476	1
0	15743	5209.216934905984	0
0	15769	5216.579400221654	1
0	15771	5222.558566137977	0
0	15840	5250.316470027347	1
0	15844	5253.405266577785	2
0	15846	5254.19140163552	3
0	15847	5256.34815500676	2
0	15856	5257.474310479939	3
0	15860	5259.509806178764	4
0	15861	5259.620114057471	3
0	15868	5262.645382366572	4
0	15870	5264.895512351411	3
0	15875	5264.91219365273	2
0	15880	5265.418814108384	1
0	15885	5265.504187407471	0
0	15899	5266.988118734899	1
0	15901	5267.053964178241	2
0	15906	5271.532034348406	1
0	15913	5272.265302969159	2
0	15914	5272.36210970359	1
0	15920	5272.872890170871	2
0	15922	5273.697855823198	1
0	15930	5277.15128677443	2
0	15935	5280.1454459021	1
0	15942	5280.896867779514	2
0	15943	5281.277888103351	1
0	15948	5281.806105415555	0
0	15967	5285.135475206301	1
0	15968	5285.649008584989	0
0	15975	5285.994216057146	1
0	15978	5290.549822329182	0
0	15984	5291.922855916891	1
0	15985	5293.079079608338	0
0	15992	5293.723910073629	1
0	15993	5293.996560865051	0
0	15999	5294.642686519892	1
0	16002	5298.379751995634	0
0	16039	5317.797727316379	1
0	16044	5319.888180484528	0
0	16082	5327.111623685336	1
0	16084	5327.203037762929	2
0	16085	5328.396434904818	1
0	16090	5328.689434193856	0
0	16101	5330.793389055172	1
0	16105	5332.603393844518	0
0	16121	5337.683468561165	1
0	16126	5339.670194832843	0
0	16135	5340.007089464492	1
0	16139	5342.09045437028	2
0	16140	5342.196259792299	1
0	16145	5343.519302611868	0
0	16157	5345.607370923507	1
0	16161	5348.200167145957	0
0	16167	5349.417521789637	1
0	16171	5351.153614856513	2
0	16174	5351.200503565473	3
0	16175	5351.217046626183	2
0	16181	5359.809894537805	1
0	16188	5360.646014436581	0
0	16199	5362.103611237057	1
0	16201	5362.917852147468	2
0	16202	5366.071078120778	1
0	16207	5366.616274072429	0
0	16217	5370.871678936855	1
0	16219	5371.771145509673	2
0	16223	5378.199916257174	3
0	16225	5378.545770734027	4
0	16230	5382.766589286766	3
0	16235	5384.445430304605	2
0	16240	5384.542894044526	1
0	16246	5385.098935419892	0
0	16277	5392.394015966727	1
0	16284	5397.975611956593	2
0	16286	5398.730958334567	3
0	16294	5408.36726680024	4
0	16295	5410.246892417646	3
0	16303	5411.430971371698	2
0	16311	5414.150947977419	1
0	16317	5414.308089765356	2
0	16319	5414.354077231981	3
0	16320	5416.357104568228	2
0	16325	5416.862882010489	1
0	16335	5418.617713094208	0
0	16363	5433.25252161977	1
0	16364	5433.938811429306	0
0	16391	5446.426879338043	1
0	16392	5446.470046885509	0
0	16399	5447.919790159396	1
0	16402	5448.853401330657	0
0	16416	5451.227199472868	1
0	16418	5451.744314482006	2
0	16419	5452.896354395204	1
0	16425	5453.426793881587	2
0	16426	5453.441090613456	1
0	16433	5458.15024322712	0
0	16440	5459.444711452986	1
0	16442	5460.150095043394	2
0	16445	5460.90605671711	3
0	16449	5462.830383742491	4
0	16452	5463.259391307108	3
0	16458	5466.701749457836	4
0	16461	5467.719242825078	5
0	16462	5469.864284788529	4
0	16468	5472.196642718672	3
0	16473	5472.477524791262	2
0	16478	5472.74161015863	1
0	16484	5474.627034439616	2
0	16487	5475.648543069015	3
0	16490	5476.741570741167	2
0	16499	5477.764680402681	3
0	16501	5478.383334954886	4
0	16503	5479.867551422852	3
0	16508	5480.456855904621	2
0	16513	5481.809209992645	1
0	16521	5484.60412163993	0
0	16533	5486.674734427581	1
0	16534	5486.888286097028	0
0	16548	5489.998405969438	1
0	16552	5494.74581308722	2
0	16555	5496.769914980084	1
0	16561	5497.972333685776	2
0	16562	5498.197859350596	1
0	16568	5499.187337220038	0
0	16588	5501.544645600632	1
0	16589	5501.58944369227	0
0	16623	5512.484978671533	1
0	16626	5513.469762524236	0
0	16640	5516.607202777972	1
0	16642	5517.041551206399	2
0	16645	5517.944327255239	1
0	16650	5518.895460838708	0
0	16660	5520.427018364921	1
0	16665	5522.20721423418	0
0	16690	5526.92926309927	1
0	16693	5527.626562253902	0
0	16711	5530.065855633415	1
0	16715	5530.696833248563	0
0	16735	5536.444687931297	1
0	16739	5539.348982051922	2
0	16741	5539.55181748449	3
0	16743	5540.378662520374	4
0	16745	5540.379814405344	5
0	16746	5540.891034903012	4
0	16752	5541.500927145337	5
0	16755	5541.977882579883	6
0	16758	5544.333033261679	7
0	16759	5545.832675655571	6
0	16766	5547.366409081179	5
0	16775	5548.271142055543	4
0	16781	5550.408632787284	3
0	16786	5551.149278751414	2
0	16791	5552.941633799628	1
0	16797	5554.160998289648	2
0	16803	5555.349089630617	1
0	16808	5557.831033921777	0
0	16862	5586.181852140891	1
0	16863	5586.977275193985	0
0	16872	5588.367879977999	1
0	16873	5588.808554903418	0
0	16893	5596.123302830521	1
0	16897	5599.987031218039	2
0	16898	5600.798621800905	1
0	16903	5601.023679520726	0
0	16926	5610.067830260283	1
0	16929	5611.275151165328	0
0	16935	5611.713819442886	1
0	16937	5613.545805285021	0
0	16943	5613.769720900984	1
0	16944	5613.797564531975	0
0	16965	5620.697714870123	1
0	16968	5624.789015776672	0
0	16984	5630.217687244001	1
0	16985	5630.414154655306	0
0	16996	5633.06069544356	1
0	17001	5633.215943725305	2
0	17002	5636.650353213239	1
0	17007	5638.140019707639	0
0	17024	5646.362310028563	1
0	17025	5647.560668898534	0
0	17066	5658.845467370526	1
0	17068	5659.988724983806	2
0	17071	5662.426116566967	3
0	17072	5663.076751131436	2
0	17080	5664.891972059298	1
0	17085	5666.161283555507	0
0	17098	5668.798263138652	1
0	17100	5669.640476951518	2
0	17104	5673.279493495495	3
0	17105	5675.113583376944	2
0	17112	5676.707764815841	3
0	17114	5678.738461278314	4
0	17116	5680.024043265806	5
0	17118	5680.907855050459	6
0	17120	5681.013603470754	7
0	17121	5681.331574917887	6
0	17127	5681.762492734223	5
0	17135	5682.480206346839	6
0	17138	5683.542580507535	7
0	17140	5686.40820030038	8
0	17144	5688.316974475239	9
0	17148	5690.35594288043	10
0	17149	5693.408337581855	9
0	17154	5693.421322403328	8
0	17160	5695.106038826666	7
0	17167	5697.414697382344	6
0	17173	5698.016705053846	5
0	17182	5700.490262046748	4
0	17191	5705.097458078739	5
0	17192	5705.74668794115	4
0	17198	5707.182411789073	3
0	17204	5707.872705134861	4
0	17207	5708.424146230527	5
0	17208	5709.504781489306	4
0	17215	5710.318000772633	3
0	17221	5710.568197843748	2
0	17227	5710.695641278967	3
0	17230	5711.716055961685	2
0	17235	5712.38463585146	1
0	17244	5714.264116777362	2
0	17248	5717.068953286326	3
0	17252	5717.438943376519	4
0	17253	5717.646886272029	3
0	17259	5717.698134316909	4
0	17263	5718.1392070801	5
0	17265	5719.605361803277	4
[...]
5	82324	26695.289382899163	6027.9012587892
5	82345	26702.960870797837	6028.5821323134
5	82507	26748.774152775908	6067.7029000321
5	82512	26750.036404799524	6063.7038726867
5	82519	26751.689746621816	6061.3640855604
5	82526	26752.567044059724	6052.5705337507
5	82536	26753.574343539415	6050.9045608797
5	82543	26756.43640437788	6053.0865289813
5	82551	26759.530786537307	6055.7424563298
5	82569	26765.253205887216	6060.7007533226
5	82587	26770.894306874582	6066.1020048061
5	82673	26807.612630731425	6098.5613195027
5	82678	26810.790161662803	6097.175161397
5	82683	26812.530280406327	6085.5057450828
5	82688	26813.828629734855	6086.4112961888
5	82693	26815.590481247878	6076.7750261655
5	82698	26820.471106995976	6057.5496028802
5	82707	26825.951697897456	6059.5422423299
5	82732	26835.723831939248	6047.7698426103
5	82748	26838.264088279217	6045.8568467465
5	82753	26840.462238617374	6043.9056022247
5	82764	26843.165182307538	6046.2375637832
5	82774	26845.91821859947	6043.9780560117
5	82779	26847.121669390191	6041.8006365034
5	82791	26852.765533274154	6043.7106977029
5	82823	26863.73726932889	6039.1851581289
5	82828	26864.774960827683	6039.2404087244
5	82833	26866.671614840761	6040.240077069
5	82846	26872.7175693481	6043.4395519318
5	82908	26887.922177293621	6057.9413001858
5	82961	26910.958450023184	6069.7931972333
5	83010	26926.857064715275	6085.4699291548
5	83017	26927.126511747091	6072.515572618
5	83030	26930.657289340417	6071.5852332208
5	83037	26932.173117075676	6066.3207997722
5	83068	26943.953746963151	6077.2314053879
5	83089	26949.70921388975	6076.2457458313
5	83096	26950.426633725185	6074.1717034607
5	83107	26952.533599623023	6071.8472369394
5	83113	26953.639482638532	6045.9121880805
5	83123	26962.385089467308	6041.4673965905
5	83140	26968.987988090021	6046.8858277137
5	83259	27003.116315128219	6079.4408586711
5	83265	27005.62356350444	6080.8427256251
5	83270	27007.668918887611	6079.9224438034
5	83279	27011.3358838084	6082.0655305077
5	83286	27014.777804120967	6085.0222075511
5	83303	27019.726557118711	6082.8274319609
5	83349	27039.647353192877	6099.5820809728
5	83354	27043.849125657912	6102.5048511437
5	83364	27046.569365063623	6103.6921997989
5	83369	27048.445513447319	6105.4448429288
5	83374	27050.094640429202	6087.8901347271
5	83383	27056.171687125236	6091.7961131952
5	83396	27061.942461111388	6085.8566822557
5	83425	27069.568982906788	6092.7922916231
5	83434	27072.844687136865	6078.2483183813
5	83439	27074.992443453285	6079.9105161018
5	83450	27081.71209643277	6085.7414043609
5	83590	27117.862010592587	6119.4977998029
5	83595	27118.740467684289	6118.6066158982
5	83600	27118.792842515822	6117.0492568775
5	83611	27122.746124557376	6107.2453225622
5	83669	27140.972702384281	6118.7744391079
5	83676	27143.425838465231	6120.7342996206
5	83688	27146.531414527184	6108.669328382
5	83708	27152.676793082021	6099.542099845
5	83733	27158.803661446017	6102.4339777701
5	83740	27160.912136816651	6102.1940573745
5	83749	27162.566680657006	6099.1368311511
5	83768	27166.876371236329	6085.6140280431
5	83773	27167.238204095709	6085.4433154496
5	83780	27169.948727721074	6070.6876194739
5	83788	27175.057071131135	6075.6305540414
5	83795	27177.738545669874	6074.7264398044
5	83802	27186.939676977221	6083.388097772
5	83817	27192.862659682559	6087.0087950222
5	83888	27217.241019203073	6108.2598969029
5	83928	27230.687646529881	6119.850014821
5	83953	27237.677401012192	6123.8858613042
5	83962	27240.980598175873	6116.436580576
5	83976	27244.365750814872	6117.7161886811
5	84176	27304.088205751847	6174.0278473998
5	84181	27305.176556296476	6171.7618619323
5	84186	27305.699288745364	6165.9454394406
5	84195	27310.265669885881	6164.3016783007
5	84245	27332.040011059425	6174.7107201169
5	84252	27333.147024612088	6156.7359259725
5	84332	27363.776926291542	6182.1957223289
5	84342	27365.634284271868	6183.4108768493
5	84350	27371.192685734397	6182.3215424461
5	84355	27371.577044782257	6174.5413418985
5	84364	27372.954339427519	6170.2427491027
5	84373	27374.062981978475	6169.3593292446
5	84397	27385.468196216383	6180.4591474734
5	84476	27405.418111462999	6190.2244575076
5	84524	27417.728264617472	6195.9120395455
5	84532	27418.687394733319	6178.5282319785
5	84537	27419.10156019716	6163.7983344072
5	84542	27419.835580028801	6161.0467990526
5	84556	27426.177191917358	6151.0811811882
5	84578	27431.931839325093	6150.913262389
5	84594	27440.625958585197	6140.9315228046
5	84623	27450.726470655554	6146.726987424
5	84658	27461.212965229852	6149.1918849657
5	84701	27470.921334418243	6152.231835551
5	84716	27476.243455172779	6150.7325738572
5	84759	27491.677242562866	6164.8724649873
5	84781	27499.40764873721	6168.3228011794
5	84794	27507.895162024715	6164.2268294663
5	84806	27508.728659342126	6159.9521448344
5	84830	27527.284466005532	6174.0753023082
5	84838	27529.080301952894	6173.6251028169
5	84881	27544.754595620626	6188.6542909951
5	84901	27550.459409545749	6176.9479305093
5	84908	27552.423242920965	6173.913066388
5	84930	27555.243069140593	6169.0516522472
5	84944	27561.704586142077	6166.0421693585
5	84953	27565.772729778207	6162.1782394935
5	84980	27578.173252925731	6172.8877485759
5	85241	27657.924779606106	6245.2727750323
5	85248	27658.801958296856	6241.9089204904
5	85260	27660.945060647012	6243.8106680469
5	85434	27708.128010496471	6289.9368629519
5	85442	27711.816820225195	6286.528189113
5	85453	27714.998528515366	6282.1835199153
5	85463	27715.095387243862	6277.2663038959
5	85472	27718.313123389169	6275.6603159621
5	85479	27719.611851638556	6275.1565368834
5	85488	27724.874649307706	6257.2443757295
5	85506	27727.321406295168	6254.9219704522
5	85519	27734.29750076326	6257.4677664405
5	85575	27747.446060916703	6264.858677462
5	85592	27751.329502669854	6266.8164934272
5	85597	27752.946037747028	6267.7458534274
5	85604	27754.676708129494	6265.9532491481
5	85619	27765.341788534822	6276.0061962321
5	85641	27768.826901690025	6278.0516703606
5	85663	27773.278560096381	6277.1083524347
5	85668	27774.925119191862	6277.6121681396
5	85675	27782.114525466299	6284.2453160722
5	85683	27784.58577505611	6284.8280129518
5	85690	27787.516828982093	6280.0620955946
5	85697	27793.143445829118	6284.0217730164
5	85708	27800.420908432951	6289.5247966087
5	85727	27808.575628517452	6294.9750548364
5	85740	27810.713598971933	6287.285863904
5	85745	27812.56443523032	6282.4100389773
5	85760	27815.876790857052	6284.7081437809
5	85800	27825.611766851273	6285.7031388315
5	85807	27828.367748875557	6285.9963985398
5	85819	27830.505520511223	6288.1051418262
5	85833	27839.263822138862	6295.7127869911
5	85856	27846.258549493548	6293.6306634908
5	85866	27848.470549612397	6289.3595610573
5	85875	27860.499393280921	6290.4929147441
5	85882	27861.682722851689	6283.6282935921
5	85889	27864.425289062238	6285.1308253285
5	85900	27871.34786885514	6279.9111461511
5	85926	27878.155609621274	6282.7762621231
5	85941	27881.496741806445	6285.2947582482
5	85956	27887.372906350063	6278.981340499
5	86011	27905.45227061257	6296.7164215161
5	86023	27908.45652910902	6285.6989054572
5	86028	27909.71444892856	6252.955242265
5	86047	27916.791248751882	6254.4845854234
5	86132	27939.819676939277	6274.2658508185
5	86161	27947.987575407579	6282.221276214
5	86173	27949.524500183969	6279.4654981978
5	86190	27954.401297426207	6282.991853874
5	86205	27961.685803986282	6283.6020716999
5	86221	27964.687237507337	6262.7353838321
5	86240	27968.817655925433	6242.8251999757
5	86245	27969.693747317548	6242.1538047452
5	86252	27973.808549996842	6243.06559987
5	86269	27985.935127528424	6251.8815514933
5	86277	27988.392619954859	6247.2459778522
5	86287	27993.388357685803	6251.2054788925
5	86302	27996.999164008263	6251.1860471705
5	86350	28008.704118609786	6257.5444460263
5	86358	28011.421359258681	6259.8434231909
5	86363	28012.514104715578	6256.2639161264
5	86375	28019.132588038733	6251.0337129069
5	86412	28031.98930106229	6262.8585528841
5	86423	28036.911087004295	6264.9427619711
5	86534	28075.541102370308	6292.1268729783
5	86541	28077.969218606145	6283.5486825498
5	86548	28079.739798295745	6274.4696985222
5	86555	28080.143093630534	6273.6501569307
5	86562	28082.966371321456	6276.4395847484
5	86573	28084.482780103613	6277.7183831701
5	86590	28096.366156150449	6281.5946395021
5	86645	28111.74842220603	6292.3407605217
5	86652	28113.882580200839	6288.2352110061
5	86660	28116.631068686892	6287.9245830662
5	86665	28117.810767886798	6278.9879644185
5	86672	28124.438249717043	6273.550484332
5	86685	28130.097258718108	6267.7599394859
5	86701	28135.287300060847	6265.5041938624
5	86720	28143.839008657997	6271.1834592189
5	86762	28155.004345061541	6279.3657498024
5	86827	28173.659113077931	6296.7035670927
5	86834	28176.045737137858	6295.0951091706
5	86855	28184.261817088664	6302.4937142402
5	86905	28195.137623730953	6311.1847300384
5	86916	28197.686949718333	6311.9958543265
5	86937	28202.440480556755	6309.7588515567
5	86954	28206.492721610713	6313.8021736708
5	86980	28211.767049408746	6318.6128519186
5	86988	28212.847007967981	6318.4259039894
5	87029	28222.42457157663	6321.7616448965
5	87034	28223.60505039043	6322.2136872094
5	87039	28223.997489287192	6314.5298078931
5	87051	28233.475684291667	6310.2312612144
5	87081	28252.539259993388	6324.6239967305
5	87116	28262.767951451222	6332.4717238071
5	87122	28263.695877832144	6328.009257197
5	87129	28268.469616190734	6312.3123289247
5	87162	28280.713524741125	6323.1312118479
5	87376	28349.511397716526	6391.6387334028
5	87412	28368.426198573102	6404.2688127399
5	87418	28370.275178096922	6404.4418729559
5	87435	28375.162786341234	6380.6975686273
5	87475	28382.672761885113	6384.1409597686
5	87490	28385.34420357419	6369.1713393638
5	87495	28385.659798772554	6363.5056619207
5	87504	28386.27105509155	6354.7876914004
5	87517	28388.401863414009	6355.6322247857
5	87522	28389.254407728621	6356.2803462466
5	87531	28390.930042802953	6356.1635510196
5	87543	28393.957454403074	6359.1245958949
5	87550	28395.053383499227	6346.8781608229
5	87561	28399.053948933551	6347.7677386973
5	87608	28413.020503992265	6355.6090227465
5	87623	28419.288491757643	6351.7303896654
5	87663	28431.353305439465	6345.0026592403
5	87744	28448.545225186054	6349.6039564008
5	87769	28456.344426106725	6350.6039506551
5	87782	28464.209774354758	6358.28088908
5	87803	28473.254754238919	6364.6846163802
5	87822	28483.514050661422	6353.7995493321
5	87827	28487.180925703313	6357.4246659802
5	87832	28491.17972423513	6354.9636960354
5	87841	28493.830456972305	6357.5022736878
5	87860	28499.772742561266	6361.2187765309
5	87867	28505.106850482661	6363.4881454395
5	87952	28539.617356353727	6382.0134574378
5	87970	28548.877782078133	6389.7207637589
5	88013	28559.841315623249	6389.3684567962
5	88060	28574.527870534548	6400.7116147271
5	88069	28576.106762460011	6389.1135922928
5	88107	28585.642881448322	6393.7676635177
5	88113	28585.811073861532	6372.2683041825
5	88118	28586.807080609144	6361.2018242852
5	88133	28593.708253006011	6365.3766382751
5	88159	28600.504667862052	6355.8481447522
5	88174	28604.243184513632	6355.8859375268
5	88196	28606.86222614068	6354.2118103835
5	88308	28644.935481898426	6383.2491449935
5	88314	28645.12413744166	6372.7051479203
5	88323	28649.009362991062	6371.7164824973
5	88369	28662.891647985026	6367.9157947917
5	88374	28663.5087640422	6363.784639096
5	88379	28664.599236906873	6353.9052506835
5	88384	28666.897152920711	6347.3770145171
5	88389	28667.661268427534	6346.8634191862
5	88397	28670.06629141948	6338.8774392146
5	88410	28675.20126999499	6337.0418465492
5	88419	28678.663237950304	6337.6485848551
5	88432	28683.807696336709	6338.8115539657
5	88463	28693.983326344073	6342.7335455657
5	88717	28767.311051545447	6414.5901916786
5	88722	28767.452010686371	6408.0791104608
5	88733	28771.965523954927	6412.1027946757
5	88756	28779.776662963232	6407.3188680757
5	88767	28783.626487633043	6408.7700723364
5	88774	28784.552871143212	6407.1775005442
5	88781	28787.446803958966	6399.399507339
5	88788	28791.580056423561	6399.1647148015
5	88801	28795.423957411364	6391.8987845194
5	88844	28813.144554004512	6405.0962497597
5	88886	28819.789056390565	6402.0094328803
5	88901	28824.498017999258	6402.6682357103
5	88911	28829.514034943542	6400.9210825617
5	88928	28833.968849319751	6404.1424803362
5	88943	28838.179254277468	6403.4090352278
5	88965	28846.766989653146	6410.7426156149
5	89018	28861.049234303325	6419.9887786496
5	89024	28861.348830727864	6413.5108664336
5	89029	28861.989249975608	6411.8403696962
5	89034	28862.09203726176	6411.5807987473
5	89039	28862.33328475882	6409.6622498774
5	89046	28863.484477560474	6405.1598268246
5	89096	28876.766660515253	6408.4422692204
5	89102	28877.133793925169	6381.6816125675
5	89109	28882.151899569574	6384.060618031
5	89121	28883.698774322627	6383.0518958133
5	89126	28884.389759888836	6382.1068004081
5	89135	28886.310874749404	6367.0481659661
5	89166	28896.829489859941	6377.2680241557
5	89268	28922.205529667092	6401.0772003545
5	89287	28926.033688911724	6403.5091115486
5	89292	28927.461100040282	6404.4237540634
5	89311	28932.697634210018	6395.5079556624
5	89396	28963.401725944974	6425.3879742396
5	89498	28997.848326526788	6455.6985039867
5	89534	29005.513978588147	6459.4515854365
5	89553	29017.817776540678	6468.4541727803
5	89565	29026.465359771633	6471.8725615765
5	89595	29037.612019272893	6473.1270869346
5	89602	29039.063470500821	6468.2065102353
5	89607	29039.860883435724	6455.8701871219
5	89612	29041.474187772811	6450.9050210716
5	89617	29041.75302034695	6449.254631504
5	89622	29043.10890982923	6450.2022358739
5	89627	29043.446710542145	6442.8390556139
5	89636	29047.032500406925	6446.0870141687
5	89641	29047.913067819182	6443.3714364154
5	89652	29051.625819828715	6445.0580202684
5	89673	29060.74990039718	6439.480543135
5	89683	29065.221193138754	6437.1803708277
5	89799	29104.969163578846	6467.8939276077
5	89849	29122.29079857661	6480.2831521239
5	89860	29124.477087980962	6471.7748586929
5	89867	29125.119878582136	6470.4956896826
5	89877	29127.689910809933	6470.9356287824
5	89882	29127.780476725646	6462.9333938778
5	89888	29128.155863206179	6453.6374730624
5	89895	29128.837237441238	6444.4761916582
5	89919	29135.830271670489	6446.1123872638
5	89931	29136.984040163214	6439.080249788
5	89938	29138.343879200759	6439.1770715623
5	89953	29143.334393743599	6440.396946614
5	90008	29157.557869258536	6438.2261395336
5	90018	29157.817462537366	6433.8792338902
5	90028	29162.341755024081	6429.8540625674
5	90053	29172.908856292465	6439.6908874002
5	90064	29175.726231044802	6424.308395958
5	90070	29176.329045094091	6421.6482450492
5	90075	29179.631556191431	6414.6054298379
5	90080	29185.733933780998	6400.5234715079
5	90089	29192.440456274216	6407.229108364
5	90104	29196.417356005096	6404.0354852203
5	90119	29198.581453223991	6404.2177398007
5	90125	29201.082659187278	6396.8132459959
5	90130	29204.428097968574	6398.3802430174
5	90135	29205.989287503735	6388.7552680237
5	90155	29218.963903808635	6401.6278178089
5	90202	29228.044685942857	6401.1140316581
5	90282	29250.281022276816	6413.4589144611
5	90492	29327.284879887059	6487.1736450737
5	90497	29327.306561627194	6477.8468163844
5	90505	29330.037280080084	6471.3243349449
5	90514	29332.375637128369	6473.3435707517
5	90531	29336.348377114094	6475.9192017059
5	90540	29337.275546532614	6476.1753987655
5	90559	29343.063970367873	6463.5787356792
5	90566	29349.626206358967	6461.0061876837
5	90575	29351.132765678294	6461.4412975902
5	90588	29354.080163492872	6463.2319649929
5	90600	29356.313519775409	6463.7653768016
5	90608	29357.821687796556	6461.2845887677
5	90620	29359.1079053403	6445.7237064234
5	90627	29362.046067031473	6429.185452825
5	90636	29365.131310352227	6406.1075391273
5	90648	29365.985831103281	6405.8417012833
5	90668	29372.155203578875	6410.0423818683
5	90684	29379.276268001099	6407.5638607568
5	90708	29386.045408055691	6408.8608458111
5	90725	29387.55006733898	6407.8393871205
5	90733	29391.852965529157	6405.1188591048
5	90746	29396.283479957364	6405.975655037
5	90759	29402.100480031986	6411.6429939233
5	90784	29410.296854572731	6408.2770644357
5	90897	29448.342356460358	6437.0512928768
5	90908	29451.423011169855	6438.8807999378
5	90921	29458.678930864717	6437.397987504
5	90928	29460.902161433846	6411.0644910546
5	90959	29470.194384152279	6418.0893044682
5	90984	29476.459740865243	6423.1902295491
5	90991	29478.156805954926	6420.1654154314
5	91004	29480.106070415182	6421.2558774813
5	91014	29481.330693384473	6421.9164544932
5	91023	29483.360630470996	6413.755155819
5	91042	29488.91192141602	6417.5056748052
5	91063	29497.169367461367	6425.1321152038
5	91176	29528.039381336077	6455.6526231564
5	91185	29530.521468379661	6458.0166215435
5	91198	29533.011034644512	6448.8895629294
5	91207	29534.94390640708	6441.912927622
5	91212	29534.966699053062	6435.0056623262
5	91234	29547.086402162163	6443.358469943
5	91367	29582.954648886043	6477.3855779049
5	91377	29585.257218244465	6473.2649504057
5	91385	29587.695048437291	6469.5537071638
5	91405	29594.39384938947	6475.1550015359
5	91417	29595.95339186771	6476.3039812501
5	91422	29597.129112660213	6475.4752301719
5	91427	29599.712125361218	6474.7536514268
5	91432	29599.994771432271	6472.7561348355
5	91439	29602.245228936729	6472.67732795
5	91456	29607.934850577664	6475.3318217057
5	91467	29610.20294744658	6462.1260447937
5	91474	29614.49229230574	6463.3203485785
5	91495	29620.039781603767	6466.1626866335
5	91546	29632.79783832779	6472.7082782908
5	91551	29633.441854407253	6472.0563368712
5	91559	29635.822363063065	6453.7286130886
5	91572	29640.733015153775	6458.5539450273
5	91585	29643.48781168407	6454.6115821936
5	91600	29647.924807854071	6455.2060103798
5	91609	29653.294483606629	6453.8275291488
5	91645	29662.870781319697	6432.6003910335
5	91650	29663.80527766059	6432.5916179172
5	91656	29669.298244756748	6424.9570192538
5	91663	29670.545220444983	6425.8978345514
5	91672	29676.474086132771	6425.5403416283
5	91685	29682.2022712047	6431.0443053889
5	91694	29684.546193941881	6430.7656537851
5	91719	29687.707932082362	6426.9953269997
5	91724	29689.060600427162	6428.056659807
5	91732	29690.717475683196	6423.7189856557
5	91745	29695.23618905903	6423.2297789396
5	91789	29726.253212869628	6447.6913163076
5	91849	29745.525351851846	6457.0087022687
5	91854	29747.828930412018	6455.8395532038
5	91860	29748.971398580084	6452.9980261875
5	91865	29750.057353407223	6447.2650701269
5	91873	29752.071785044141	6432.1352950906
5	91888	29756.509808697941	6428.6070921767
5	91902	29761.271906693627	6428.927474789
5	91915	29767.781807477979	6426.7294412038
5	91929	29771.703783422658	6428.8498546507
5	91940	29775.262984621886	6423.5131414433
5	92138	29835.318631374373	6466.1147749071
5	92144	29835.747416213556	6458.2777985919
5	92154	29839.440901644788	6458.9207903084
5	92192	29847.541359404779	6455.7964378547
5	92203	29851.604988316799	6458.7038054104
5	92266	29866.204073300856	6472.8557404295
5	92284	29869.146360800809	6455.0382349642
5	92289	29869.669935193395	6452.4755385495
5	92298	29873.034662927026	6451.2868797722
5	92318	29881.52647684783	6457.5001157327
5	92350	29887.85628824398	6442.6291707385
5	92364	29892.855416825457	6441.6141035548
5	92377	29895.553627047313	6430.9552180066
5	92385	29897.305407016848	6432.1176430075
5	92390	29898.402731458979	6431.8617686958
5	92396	29904.68235393557	6435.97561302
5	92401	29905.500601702442	6431.4519576031
5	92412	29910.719490760284	6435.2000133577
5	92432	29922.526184819114	6446.6436959757
5	92437	29925.148914180857	6438.1448779063
5	92446	29925.941202664099	6438.4033912546
5	92451	29929.828508094439	6426.1734822387
5	92464	29935.20006594077	6427.9100878119
5	92483	29941.027445326987	6419.8623159786
5	92505	29948.491718257885	6424.7598908301
5	92512	29950.28164412154	6424.2924223365
5	92524	29954.571928065674	6421.1216667565
5	92535	29961.329949083017	6427.2279449159
5	92540	29962.360683019946	6424.1014300348
5	92552	29969.267663487428	6411.2021568556
5	92562	29969.654903047905	6410.3599536118
5	92576	29978.041390129742	6415.7603025918
5	92631	29999.013479908205	6436.7040646622

