version 2
run Third-n5-5-20191016-14:53:51-8744
attr configname Third-n5
attr datetime 20191016-14:53:51
attr experiment Third-n5
attr inifile omnetpp.ini
attr iterationvars ""
attr iterationvarsf ""
attr measurement ""
attr network org.omnetpp.queueing.Pizza
attr processid 8744
attr repetition 5
attr replication ""
attr resultdir results
attr runnumber 5
attr seedset 5
param **.PS.maxInventoriedPS 5
param **.U1.interArrivalTime exponential(4s)
param **.U2.interArrivalTime exponential(6s)
param **.PS.serviceTimeForInventoryU1 exponential(1.4s)
param **.PS.serviceTimeForInventoryU2 exponential(1.4s)
param **.PS.serviceTimeDirectU1 exponential(1.8s)
param **.PS.serviceTimeDirectU2 exponential(1.8s)
param **.PS.probabilityProducing 0.8
param **.CS.serviceTimeU1 exponential(2.3s)
param **.CS.serviceTimeU2 exponential(2.3s)

vector 0 Pizza.EntryQueueU1 queueLength:vector ETV
attr interpolationmode sample-hold
attr title "queue length, vector"
vector 1 Pizza.CS queueLength:vector ETV
attr interpolationmode sample-hold
attr title "queue length, vector"
vector 2 Pizza.EntryQueueU2 queueLength:vector ETV
attr interpolationmode sample-hold
attr title "queue length, vector"
vector 3 Pizza.sink lifeTime:vector ETV
attr interpolationmode none
attr title "lifetime of arrived jobs, vector"
attr unit s
vector 4 Pizza.sink lifeTimeU2:vector ETV
attr interpolationmode none
attr title "lifetime of arrived jobs, vector"
attr unit s
0	0	0	0
0	5	1.004079910768	1
0	7	1.930391765611	2
0	11	3.738964224312	3
0	13	4.115420356294	4
0	14	5.085741223811	3
0	23	7.676024802913	2
0	29	7.89978038264	3
0	30	8.314930500473	2
0	35	8.585287280659	1
0	39	8.589153753283	2
0	44	9.502555838954	3
0	45	9.969379227906	2
0	53	12.076440836646	1
0	59	12.46917779268	2
0	64	13.091885211073	3
0	65	16.199688545652	2
0	70	16.417990337226	1
0	75	16.474586070241	0
0	99	26.381119045795	1
0	100	26.682145908975	0
0	116	36.295682828871	1
0	118	38.331956876269	2
0	120	39.112349612763	3
0	123	42.042204040221	2
0	131	45.431015581527	1
0	138	45.834634967429	2
0	140	47.324574428807	3
0	142	47.797249021159	4
0	150	50.369473374706	5
0	152	51.65770676526	6
0	153	51.706449644184	5
0	160	55.653854013152	6
0	162	57.548452756857	7
0	163	58.297430020183	6
0	168	59.124369695053	5
0	175	61.583789955919	6
0	178	64.730772141902	5
0	184	66.652469736563	4
0	189	67.045367759895	3
0	194	67.526246253247	2
0	203	69.899689570918	1
0	210	71.463835062059	0
0	218	72.069558721334	1
0	221	77.907977074232	0
0	227	83.566456225001	1
0	229	85.265220110423	2
0	231	87.00514476522	3
0	233	87.43026529063	4
0	236	89.846317204365	3
0	242	90.077326781691	4
0	244	90.919149544301	3
0	253	91.81191976781	2
0	259	96.174989560673	1
0	265	97.535872777548	0
0	289	103.064688534565	1
0	291	103.286579114224	2
0	293	105.503441725395	1
0	300	107.55376264666	0
0	309	108.800289371869	1
0	310	109.51678604271	0
0	323	115.893190872802	1
0	324	118.061385798553	0
0	330	118.885442653711	1
0	332	120.956405812732	0
0	351	127.824561381934	1
0	353	127.964435426077	0
0	360	129.450514539765	1
0	361	130.345919011661	0
0	367	131.122734888979	1
0	368	131.385352635316	0
0	391	135.08150215683	1
0	393	135.485315796331	2
0	394	136.164702251454	1
0	400	137.134269802022	0
0	408	142.081721456082	1
0	409	143.081046364885	0
0	451	151.929655189125	1
0	452	152.81561906775	0
0	470	165.987775863155	1
0	471	168.318645070441	0
0	513	185.245996016	1
0	515	187.039709442596	0
0	573	219.517663490477	1
0	575	219.97099851924	2
0	578	221.642447015922	1
0	588	223.483970493652	0
0	595	223.682461546918	1
0	597	223.931522747709	2
0	598	224.300467627666	1
0	606	225.285373702895	0
0	612	226.01893210855	1
0	616	226.624019932012	2
0	617	227.539775537894	1
0	623	229.745339279414	0
0	642	231.870122319542	1
0	644	234.112620483855	2
0	645	234.586379873237	1
0	656	239.198321804647	0
0	676	243.748735485986	1
0	680	245.002257262728	2
0	685	247.993750547899	1
0	690	249.924756014728	0
0	696	251.339087447725	1
0	702	254.080957479974	2
0	704	255.732963115444	3
0	705	257.414137452101	2
0	710	258.236119678292	1
0	719	261.436885132181	2
0	721	262.565672834235	3
0	723	263.104582308265	4
0	725	263.229556212872	5
0	727	264.137319150128	6
0	728	264.349869378512	5
0	734	264.895576100761	6
0	735	265.421448494237	5
0	742	269.726279306978	4
0	748	274.780716890569	3
0	753	275.489204458783	2
0	760	275.669389641876	3
0	761	275.699049634907	2
0	777	280.586910706438	3
0	779	282.804934262702	4
0	780	283.596426476291	3
0	786	283.864493436202	4
0	788	294.201129404923	3
0	796	296.821356013817	4
0	798	297.416818581262	3
0	804	298.807082474166	2
0	809	298.940387860523	1
0	815	299.281765402143	0
0	859	309.82575348739	1
0	861	310.021415344219	2
0	866	312.912497813749	3
0	867	313.758428029479	2
0	872	313.828625359508	1
0	881	319.450632159258	0
0	887	320.010637226349	1
0	889	320.037157377552	2
0	891	321.138797999473	3
0	893	323.407892210558	4
0	895	326.345161099627	3
0	901	326.777411944969	4
0	902	326.880171336442	3
0	908	328.593734196897	2
0	914	328.664036839919	3
0	916	329.618425288086	4
0	919	331.615308949214	3
0	926	333.422951201193	2
0	931	333.586938511318	1
0	942	335.318600770634	0
0	992	355.669842669545	1
0	994	357.523466144174	2
0	995	357.81895302822	1
0	1000	358.391216406736	0
0	1023	367.291989615836	1
0	1026	371.147834259668	0
0	1035	372.150096757947	1
0	1036	372.880132965952	0
0	1042	373.70158528026	1
0	1047	374.77910198914	2
0	1049	377.377663438061	1
0	1055	379.505438162087	0
0	1087	385.920244221286	1
0	1089	387.317626138567	2
0	1090	388.11902601704	1
0	1096	388.22974029076	2
0	1100	391.631957151994	3
0	1101	391.923674645157	2
0	1109	393.821608683354	3
0	1111	395.464111524119	2
0	1118	398.076491478893	3
0	1121	398.716313593194	2
0	1128	401.626027495306	3
0	1129	401.981643923922	2
0	1134	401.999028231592	1
0	1140	403.101023603907	0
0	1161	408.791826862111	1
0	1163	409.578349238865	2
0	1168	412.746342152101	1
0	1175	416.101223308405	2
0	1177	418.059526994485	3
0	1178	420.948526252975	2
0	1184	421.458381919057	3
0	1186	422.402861804797	4
0	1188	422.547621155062	3
0	1195	423.554611095304	2
0	1203	424.126973228304	1
0	1208	424.796987026188	0
0	1224	426.86681057842	1
0	1227	430.42901893728	0
0	1237	433.661741787187	1
0	1242	436.511665635625	0
0	1273	441.18654319987	1
0	1275	441.527154886184	2
0	1276	441.989790891045	1
0	1282	442.150866862314	2
0	1288	444.613618634567	1
0	1294	445.914574926556	0
0	1313	456.919965581481	1
0	1314	457.28572691279	0
0	1321	458.46996955953	1
0	1323	458.64783846806	2
0	1327	459.886587074275	3
0	1329	462.753805974731	4
0	1330	465.831635302413	3
0	1341	469.04700404609	2
0	1346	469.168511067892	1
0	1358	471.066589868427	2
0	1359	471.628473936874	1
0	1366	471.967869690086	2
0	1369	474.172980600088	3
0	1370	474.752914653261	2
0	1375	474.972767233554	1
0	1382	478.180494084157	0
0	1402	484.850606970576	1
0	1406	486.86132143516	2
0	1407	488.702563694562	1
0	1414	491.475838611589	2
0	1417	492.178458639034	1
0	1423	492.482065524038	0
0	1435	495.777514219579	1
0	1436	497.403969593192	0
0	1444	498.686557546308	1
0	1445	498.697385758246	0
0	1452	501.556308522285	1
0	1453	501.685928471557	0
0	1477	513.668770169035	1
0	1478	516.52314966903	0
0	1484	516.950650878882	1
0	1489	519.963219439502	2
0	1493	522.970319227788	3
0	1494	523.578464534192	2
0	1502	526.809165166876	1
0	1508	526.833428561157	0
0	1520	527.544593460387	1
0	1522	527.787429932608	0
0	1538	533.362702762119	1
0	1539	534.290480340345	0
0	1583	549.192989425372	1
0	1588	558.925271627851	0
0	1597	560.152133708576	1
0	1598	560.226117176564	0
0	1612	565.241177805678	1
0	1616	572.157380396063	0
0	1624	574.611939703086	1
0	1625	574.619766726649	0
0	1637	577.088579281107	1
0	1638	577.929306917754	0
0	1649	578.638169992032	1
0	1652	579.476624443336	2
0	1653	580.114516062106	1
0	1660	581.39652649217	2
0	1661	582.880272553424	1
0	1667	582.928419787497	2
0	1669	583.499267096723	3
0	1673	586.044242466019	4
0	1674	586.316729914927	3
0	1680	587.792415205473	2
0	1685	590.196585098777	1
0	1691	590.258061971406	2
0	1693	593.668788842443	1
0	1698	593.749112060598	0
0	1712	595.684959857114	1
0	1714	596.504245453886	2
0	1720	603.200914021547	3
0	1721	603.328651881045	2
0	1728	604.258944486167	3
0	1729	604.325758282211	2
0	1735	607.377046999849	1
0	1741	608.237325744669	0
0	1755	613.368175635144	1
0	1756	614.918367068367	0
0	1762	615.032414655785	1
0	1764	615.532664662504	2
0	1765	615.540542218196	1
0	1772	616.926670355807	0
0	1795	620.348561302592	1
0	1797	620.930009444601	2
0	1799	622.668215317316	1
0	1804	624.0456337393	0
0	1812	624.866689865839	1
0	1813	626.416958029628	0
0	1819	627.524116843456	1
0	1822	628.970076186123	0
0	1828	629.486623421025	1
0	1832	630.443776741507	2
0	1834	635.159189503512	1
0	1840	635.918881518588	2
0	1842	636.204545823024	3
0	1843	637.031520854921	2
0	1849	637.044035103962	3
0	1850	637.360815557436	2
0	1858	639.964467565123	1
0	1864	641.176785198817	0
0	1871	642.059278109544	1
0	1873	642.388218203412	2
0	1876	643.190833660259	1
0	1881	643.368243847419	0
0	1889	644.655353408105	1
0	1891	644.673287264891	2
0	1893	644.698682228632	3
0	1895	645.854051494175	4
0	1896	648.907301693593	3
0	1902	649.650197585814	4
0	1904	655.082102963032	5
0	1905	655.46721915155	4
0	1911	655.491240477598	5
0	1913	656.51723780642	6
0	1915	659.078131458345	7
0	1916	659.484530204218	6
0	1922	660.297854480751	7
0	1924	661.554798764299	8
0	1925	662.374009878488	7
0	1934	666.44113577768	6
0	1939	667.104297586492	5
0	1944	668.080182818706	4
0	1949	669.25549217987	3
0	1957	672.365953121667	2
0	1969	676.843862263693	1
0	1977	678.581102696896	0
0	1996	680.305059096604	1
0	1997	681.709585889457	0
0	2013	685.751269933012	1
0	2015	686.060990664464	2
0	2017	687.275947803789	1
0	2022	687.828264393512	0
0	2030	687.906275621745	1
0	2035	689.509587192057	2
0	2038	693.070730039592	1
0	2044	693.35058973549	2
0	2047	696.198211366762	1
0	2052	697.14853526888	0
0	2068	702.729906100242	1
0	2069	706.21948596603	0
0	2111	717.688262735342	1
0	2113	718.690818823626	2
0	2116	721.439868078391	1
0	2121	722.336725178797	0
0	2127	722.37892058725	1
0	2128	723.742678515107	0
0	2144	726.078478891484	1
0	2150	729.636476112453	2
0	2155	731.792046228029	1
0	2160	732.221900331024	0
0	2180	738.413760071741	1
0	2182	739.512791838097	2
0	2183	739.659654526088	1
0	2189	740.003179501458	2
0	2194	742.982368268572	3
0	2199	747.9563377388	2
0	2205	749.13110017194	3
0	2208	749.416173905008	2
0	2214	749.637313557767	3
0	2216	749.746445810392	4
0	2217	749.913435575297	3
0	2228	754.276508820952	4
0	2229	754.337513710337	3
0	2235	755.527371490136	2
0	2241	756.838820809728	1
0	2247	758.178570466578	0
0	2258	759.740355640022	1
0	2259	759.765517978367	0
0	2278	761.857867212255	1
0	2282	762.89959679459	2
0	2285	764.116902855163	3
0	2286	764.514132876799	2
0	2292	765.674121092297	1
0	2300	768.876864038114	0
0	2320	776.011069160054	1
0	2324	782.624178068675	0
0	2330	783.064761579765	1
0	2332	784.561047696917	0
0	2340	784.671599217759	1
0	2347	786.493179690999	2
0	2348	787.36204006873	1
0	2354	788.981525906982	0
0	2374	794.271755011009	1
0	2376	794.594118520887	2
0	2379	797.890312698562	1
0	2385	798.913401288738	2
0	2388	800.700402979583	1
0	2394	801.271302193158	2
0	2397	801.605227465743	3
0	2398	801.662137133907	2
0	2405	801.85928203165	3
0	2407	802.049500827894	4
0	2409	803.291394423312	5
0	2410	803.465492975831	4
0	2416	803.953635706879	3
0	2425	805.104297229514	4
0	2426	805.45739411891	3
0	2431	805.819937754415	2
0	2441	808.332265551719	1
0	2447	812.108539235494	0
0	2454	812.334497025987	1
0	2455	814.258457228568	0
0	2473	821.297614870714	1
0	2475	822.587045226039	2
0	2479	825.571826741735	3
0	2481	827.785228377846	4
0	2482	828.373697010706	3
0	2489	830.60435382968	2
0	2495	832.103047172387	1
0	2500	832.495091564569	0
0	2529	840.745679289633	1
0	2533	842.039335187036	2
0	2536	845.972390173708	1
0	2542	849.14341651583	0
0	2549	850.219184512087	1
0	2550	850.501409009371	0
0	2556	852.212352738271	1
0	2559	855.053746938506	0
0	2568	857.621249443947	1
0	2569	857.678296357403	0
0	2581	860.590300819554	1
0	2583	861.130216111543	0
0	2590	862.674130354833	1
0	2594	863.080824975482	2
0	2598	864.536434782615	1
0	2603	866.992548706815	0
0	2621	867.768659486	1
0	2625	870.129468612964	2
0	2627	871.092703217248	3
0	2628	874.172871051207	2
0	2636	874.862590451916	3
0	2641	875.504731052681	4
0	2643	875.831910288815	5
0	2645	876.171127227933	6
0	2646	877.818178722361	5
0	2651	877.872727032439	4
0	2657	879.921951229259	3
0	2663	881.961800443595	2
0	2671	887.713134069678	3
0	2672	887.887716462991	2
0	2679	888.818445427794	1
0	2686	891.167892057967	2
0	2688	891.374911118414	3
0	2693	893.409126839972	2
0	2698	893.419376230999	1
0	2703	895.452172310258	0
0	2753	912.005133359765	1
0	2756	913.509587219773	0
0	2762	914.013108474131	1
0	2764	914.611411704731	2
0	2766	916.429229286236	1
0	2771	917.059190218317	0
0	2781	918.732874034078	1
0	2783	918.746137774113	2
0	2789	920.640031326664	3
0	2793	920.980278851384	4
0	2795	921.876722647003	3
0	2801	923.006278439062	2
0	2808	924.16001989035	3
0	2814	929.729712259355	2
0	2820	929.850011255852	1
0	2827	931.307963336772	2
0	2829	932.114166709131	1
0	2836	933.402351278495	2
0	2838	933.434426926845	3
0	2840	938.133008805492	4
0	2841	938.325408189689	3
0	2847	939.023580956216	4
0	2851	945.853363434644	3
0	2856	949.5868376476	2
0	2863	950.679247957488	1
0	2869	950.950479210581	0
0	2884	953.082253742302	1
0	2888	954.416853198681	2
0	2889	954.509385817253	1
0	2897	955.564720948452	2
0	2898	956.364632280876	1
0	2906	958.363569954154	2
0	2908	959.074326871369	3
0	2910	962.955388423811	4
0	2915	967.816083527335	3
0	2921	969.074910358473	4
0	2925	972.61793517435	5
0	2926	973.623701739759	4
0	2933	974.958674368128	5
0	2934	975.567976662666	4
0	2939	976.042641582986	3
0	2945	978.562948652727	2
0	2950	978.915509812198	1
0	2958	980.146107218343	2
0	2959	981.812700506451	1
0	2969	984.27526934257	2
0	2970	984.893308876163	1
0	2975	985.517135535264	0
0	2981	986.460820428754	1
0	2982	987.349064289025	0
0	2990	988.610723784431	1
0	2995	990.575731311058	0
0	3025	999.352983039481	1
0	3027	1000.959599778524	2
0	3031	1004.753524855419	3
0	3032	1005.508249640442	2
0	3039	1009.824219250315	3
0	3040	1010.939438803549	2
0	3046	1013.647822713005	1
0	3052	1014.456452193307	2
0	3055	1017.658883563639	1
0	3061	1018.716280455464	0
0	3068	1019.917417885837	1
0	3070	1021.353256914539	2
0	3072	1021.628484269396	3
0	3074	1022.82354468157	4
0	3075	1026.142372345088	3
0	3080	1026.683440362656	2
0	3086	1026.712003087265	3
0	3093	1028.969731442268	2
0	3099	1028.979350640515	3
0	3106	1031.795571876263	4
0	3107	1032.599058622789	3
0	3112	1032.910227878902	2
0	3118	1032.951231344978	3
0	3123	1033.291271595297	4
0	3125	1033.931598676262	5
0	3127	1034.380300564185	6
0	3130	1036.119675312221	7
0	3133	1038.081322350504	6
0	3140	1040.900085228509	7
0	3144	1042.339718332174	6
0	3150	1043.037507442901	7
0	3155	1044.521533314285	8
0	3156	1044.603895937888	7
0	3163	1046.497900791438	6
0	3168	1046.933867587095	5
0	3174	1048.282673822355	4
0	3179	1048.997060536148	3
0	3185	1050.067504242339	4
0	3188	1056.598606889563	3
0	3196	1057.240659105093	4
0	3197	1058.096825347848	3
0	3202	1058.511707063749	2
0	3209	1060.863834168648	3
0	3219	1062.656525307462	4
0	3221	1063.361072573279	3
0	3226	1065.085459291998	2
0	3232	1065.326227918148	3
0	3234	1066.749947675822	2
0	3241	1068.789993260646	1
0	3247	1070.201033657496	2
0	3254	1077.558095830772	1
0	3261	1077.690565873793	2
0	3265	1083.007935851222	3
0	3266	1084.985093604348	2
0	3271	1085.54619400612	1
0	3278	1089.284272151597	0
0	3284	1089.343039765958	1
0	3286	1091.28941133071	2
0	3287	1091.560401786088	1
0	3293	1091.736985482045	2
0	3298	1096.932053492861	1
0	3306	1098.614179421121	2
0	3307	1099.550860002493	1
0	3312	1100.569329640918	0
0	3321	1102.327466510346	1
0	3323	1103.647867241636	2
0	3324	1104.086966996899	1
0	3329	1104.606085114707	0
0	3357	1114.594096470884	1
0	3361	1116.089225696652	2
0	3364	1119.598379096073	1
0	3375	1123.850074845162	0
0	3383	1126.872399308339	1
0	3385	1127.342793380962	2
0	3388	1129.846656765701	1
0	3394	1130.664486931044	0
0	3438	1137.680361193391	1
0	3441	1144.823886801214	0
0	3450	1146.331920786938	1
0	3452	1146.729655153525	2
0	3456	1149.404587046899	1
0	3461	1149.720442053458	0
0	3467	1149.81763371436	1
0	3471	1152.049908632873	2
0	3474	1152.426802278001	3
0	3475	1152.706591095299	2
0	3486	1155.882234171873	3
0	3488	1157.24759659755	4
0	3491	1160.579266088048	5
0	3493	1162.5498096212	6
0	3494	1162.724718246483	5
0	3503	1168.000125324314	4
0	3510	1170.960154775245	5
0	3512	1171.964378055935	6
0	3514	1172.785417041956	7
0	3515	1174.265557316138	6
0	3520	1174.404131477605	5
0	3528	1179.823371331081	6
0	3530	1183.506975442008	5
0	3536	1184.999139741092	4
0	3542	1185.841177684247	3
0	3548	1186.947989064869	2
0	3557	1190.08654623209	1
0	3562	1190.499625014231	0
0	3591	1194.919569343102	1
0	3592	1195.420425930693	0
0	3609	1197.895009840453	1
0	3610	1200.600889557778	0
0	3616	1202.408947243998	1
0	3617	1202.697465503527	0
0	3623	1203.002537422505	1
0	3629	1205.044264624964	2
0	3630	1206.087765348869	1
0	3636	1207.545997886935	0
0	3643	1207.884048734093	1
0	3645	1209.362969982861	2
0	3647	1212.895103214822	1
0	3655	1213.696274940827	2
0	3656	1213.772767462781	1
0	3663	1215.835923839303	2
0	3665	1216.032556740515	3
0	3668	1218.843129889869	4
0	3670	1220.206383281946	3
0	3677	1221.843875751897	4
0	3679	1223.67565576953	5
0	3682	1225.627947155184	4
0	3690	1226.691056206206	3
0	3697	1227.389113090062	2
0	3705	1230.568481686878	3
0	3707	1232.859646477604	2
0	3712	1233.231366208922	1
0	3718	1235.14149464214	0
0	3726	1235.89929103782	1
0	3732	1239.686941938378	2
0	3735	1240.770093300079	1
0	3744	1241.94112799447	2
0	3745	1243.47516190337	1
0	3751	1246.686596068274	0
0	3769	1252.204203308844	1
0	3770	1252.92793668128	0
0	3780	1257.980694748292	1
0	3781	1257.99464416576	0
0	3793	1259.120197952028	1
0	3794	1262.006424794431	0
0	3803	1264.791122074821	1
0	3804	1265.721877060272	0
0	3811	1267.717329658251	1
0	3813	1268.770106488537	2
0	3814	1269.472176045339	1
0	3820	1270.116075854601	0
0	3831	1271.216905238623	1
0	3836	1272.531380507309	0
0	3853	1273.610157560025	1
0	3854	1275.609249244349	0
0	3860	1275.807257912202	1
0	3863	1276.187648741413	2
0	3866	1276.964320347601	3
0	3867	1278.255681786579	2
0	3874	1279.756864398929	1
0	3879	1279.799811615426	0
0	3892	1280.331936115488	1
0	3894	1281.994894851808	2
0	3897	1282.686036995793	1
0	3902	1285.518659267585	0
0	3915	1288.821681325441	1
0	3920	1293.198945577314	2
0	3921	1293.710707607554	1
0	3929	1294.326344147555	2
0	3932	1295.718453559756	1
0	3938	1296.367370289968	2
0	3939	1296.597161166684	1
0	3945	1296.924010711677	2
0	3947	1297.702789577215	3
0	3948	1298.076951336621	2
0	3955	1302.535928456477	3
0	3956	1302.983792469023	2
0	3963	1303.939981943931	3
0	3967	1307.149425713188	2
0	3972	1308.55094902632	1
0	3980	1317.043051237858	2
0	3982	1317.44462852588	3
0	3984	1318.252888058231	2
0	3991	1321.093583371748	1
0	3999	1325.089854904115	0
0	4006	1325.488890940378	1
0	4007	1326.481181003925	0
0	4019	1333.418805049528	1
0	4020	1336.844859158869	0
0	4047	1342.920613697073	1
0	4048	1344.199685698949	0
0	4065	1347.132318171995	1
0	4066	1347.25038921863	0
0	4087	1353.543829375607	1
0	4092	1355.423510238214	2
0	4093	1360.361893386024	1
0	4098	1361.447049959692	0
0	4127	1372.886200819611	1
0	4131	1374.560028768406	2
0	4132	1374.561331616248	1
0	4139	1375.08862759599	2
0	4140	1376.216209734245	1
0	4145	1377.690613431917	0
0	4176	1394.86243039739	1
0	4183	1399.276854556734	2
0	4184	1401.741993591671	1
0	4190	1403.215030048969	0
0	4209	1406.959941828413	1
0	4211	1407.995943992098	0
0	4222	1414.569639581237	1
0	4223	1414.801027843408	0
0	4245	1419.154497008907	1
0	4248	1419.337809532429	0
0	4290	1429.437121063742	1
0	4296	1434.828255154741	0
0	4310	1438.355794061186	1
0	4312	1438.497821439785	2
0	4316	1440.783260952439	3
0	4318	1441.109398851216	4
0	4319	1442.66772203174	3
0	4324	1443.788929729876	2
0	4329	1445.724904578021	1
0	4336	1447.448357556624	2
0	4338	1448.857083793979	1
0	4343	1449.195071836107	0
0	4358	1454.932619450448	1
0	4359	1456.087346372738	0
0	4372	1461.62711988456	1
0	4377	1466.290561590681	0
0	4400	1473.854552025176	1
0	4401	1476.15528819816	0
0	4434	1491.571113715068	1
0	4435	1492.151041462161	0
0	4452	1505.573749536246	1
0	4456	1508.607687762409	2
0	4459	1510.048782512557	3
0	4461	1512.362581656737	4
0	4462	1512.797442523516	3
0	4469	1513.56457614734	4
0	4470	1515.00458408062	3
0	4481	1522.365865047378	2
0	4486	1522.56855005526	1
0	4492	1523.314203745418	0
0	4502	1530.118710511365	1
0	4503	1530.714797436067	0
0	4525	1532.550418701778	1
0	4534	1535.728659686534	0
0	4543	1536.866252064605	1
0	4546	1537.770846241278	0
0	4552	1538.464573812621	1
0	4555	1540.403812256341	2
0	4559	1545.140603555214	1
0	4565	1545.323732037812	0
0	4578	1548.443451533496	1
0	4584	1550.412508926748	0
0	4598	1553.471982451052	1
0	4602	1555.693056991185	2
0	4604	1556.353652531197	3
0	4605	1556.56743124922	2
0	4611	1557.999979813803	1
0	4616	1558.178602940938	0
0	4628	1560.147178030713	1
0	4638	1564.961819077307	0
0	4666	1576.237787818751	1
0	4667	1576.300409283892	0
0	4675	1581.298184699425	1
0	4676	1581.320123917031	0
0	4700	1586.206078849478	1
0	4703	1587.500280842256	0
0	4709	1588.230601312401	1
0	4711	1591.830278035688	0
0	4720	1594.042068879047	1
0	4722	1595.621644010089	0
0	4737	1600.098559210965	1
0	4742	1603.246747365844	0
0	4766	1612.251359847013	1
0	4769	1615.933353734539	0
0	4777	1619.544501675002	1
0	4778	1619.622777629346	0
0	4808	1629.3561122745	1
0	4809	1630.504057189998	0
0	4825	1636.814678354265	1
0	4829	1642.536767224756	2
0	4830	1642.598866030956	1
0	4838	1647.33592676809	0
0	4852	1651.154728976734	1
0	4854	1651.200144392516	2
0	4857	1652.344222763397	3
0	4859	1653.199273040756	4
0	4860	1654.540412336769	3
0	4866	1658.888167466863	2
0	4872	1659.437804409516	1
0	4879	1660.02758155636	2
0	4885	1663.150676538087	3
0	4886	1666.236942628264	2
0	4892	1668.425147322519	1
0	4901	1670.00238855732	0
0	4918	1673.477992893434	1
0	4919	1674.28266894917	0
0	4944	1678.75915680606	1
0	4947	1679.491553009296	0
0	4955	1680.662080962531	1
0	4958	1680.712414157695	0
0	4970	1685.304084316717	1
0	4972	1685.327099617006	2
0	4973	1689.65696708978	1
0	4978	1690.881022264899	0
0	4995	1692.432793845381	1
0	4997	1693.798040181444	0
0	5003	1694.946027647559	1
0	5004	1695.433423563648	0
0	5015	1696.970215796153	1
0	5016	1697.057116980714	0
0	5047	1705.165625591497	1
0	5055	1711.526516010599	0
0	5065	1713.795997299742	1
0	5068	1715.156834052876	0
0	5083	1717.96380749622	1
0	5088	1722.042294285669	0
0	5095	1725.176053228438	1
0	5096	1726.604243448682	0
0	5121	1733.333711315354	1
0	5122	1735.217996820584	0
0	5129	1736.486058030467	1
0	5131	1737.74945999807	2
0	5137	1740.100700557994	1
0	5142	1740.692886793115	0
0	5151	1744.681202669531	1
0	5153	1745.003418489285	2
0	5154	1745.600166358215	1
0	5162	1749.48581396164	0
0	5191	1765.141966576969	1
0	5194	1766.452842031475	2
0	5195	1767.524234787803	1
0	5200	1768.861193316416	0
0	5208	1775.714227552832	1
0	5209	1775.778268563009	0
0	5227	1781.685094409097	1
0	5228	1785.540396342454	0
0	5244	1787.081347753808	1
0	5247	1789.092610023124	0
0	5254	1791.367481957216	1
0	5256	1793.233075322673	0
0	5275	1798.528323411662	1
0	5280	1802.043489627606	0
0	5300	1809.780386101685	1
0	5301	1811.283521808729	0
0	5312	1814.888255311659	1
0	5313	1815.217356120593	0
0	5327	1816.939505857113	1
0	5328	1817.281907753348	0
0	5349	1822.670430812422	1
0	5351	1823.49995705155	2
0	5353	1825.518129031347	3
0	5356	1826.951264347475	2
0	5362	1827.855593178009	1
0	5372	1829.934239322414	0
0	5378	1830.596533081518	1
0	5384	1834.644925870008	2
0	5390	1837.229892289586	3
0	5391	1838.438078190456	2
0	5397	1838.725293078279	3
0	5399	1840.584188574896	2
0	5405	1841.176426357258	1
0	5411	1842.433048232929	2
0	5412	1843.561356524358	1
0	5419	1844.783705387867	2
0	5420	1844.81752390991	1
0	5427	1847.751267626548	2
0	5431	1848.767512974868	3
0	5435	1850.78401620978	4
0	5438	1852.770739110542	3
0	5444	1855.434851836421	2
0	5451	1856.043793322864	3
0	5455	1862.447005927117	4
0	5458	1869.23268220196	3
0	5464	1869.936864700041	2
0	5470	1871.465442665768	1
0	5475	1871.503477046747	0
0	5522	1879.028577341114	1
0	5525	1879.433310088136	0
0	5532	1880.084093076942	1
0	5533	1880.100887055344	0
0	5542	1881.472420380952	1
0	5543	1881.594984228932	0
0	5555	1883.391315083884	1
0	5560	1884.454890915692	2
0	5570	1888.698102208523	1
0	5577	1892.834998552939	2
0	5578	1895.085605149706	1
0	5583	1895.541837629263	0
0	5591	1899.648926933	1
0	5593	1900.033944428435	2
0	5594	1902.237690449965	1
0	5600	1903.002297865238	0
0	5612	1906.730764741599	1
0	5616	1909.083915570714	2
0	5617	1909.686491188022	1
0	5624	1912.338056988642	0
0	5630	1913.223413571549	1
0	5632	1913.471485552424	2
0	5634	1914.01356834269	1
0	5640	1914.100590785822	2
0	5643	1914.271862153979	3
0	5646	1916.253532192503	4
0	5647	1916.638932432654	3
0	5654	1917.306658527089	2
0	5660	1918.033247187027	1
0	5666	1919.299026746802	0
0	5685	1922.554781478583	1
0	5687	1922.807080430843	2
0	5689	1923.731539218563	3
0	5690	1929.154279618017	2
0	5695	1929.640632647903	1
0	5702	1930.929921017899	0
0	5747	1943.987852427109	1
0	5749	1944.522606179836	2
0	5753	1946.790045870415	3
0	5758	1949.444488873357	2
0	5763	1949.617515445493	1
0	5770	1950.06903017216	0
0	5784	1953.202203387604	1
0	5787	1957.831123060456	2
0	5788	1958.159864218632	1
0	5793	1959.172403662596	0
0	5811	1961.650246460539	1
0	5812	1963.798736973696	0
0	5818	1964.076550653216	1
0	5820	1967.04382695097	0
0	5833	1972.471760611792	1
0	5834	1972.931131506504	0
0	5841	1974.509851992929	1
0	5842	1974.641319588607	0
0	5863	1982.672792314162	1
0	5865	1983.256463615453	2
0	5866	1987.145822064898	1
0	5872	1987.674451862408	2
0	5874	1989.729066833015	1
0	5881	1990.249268290353	2
0	5884	1992.356684385865	3
0	5888	1994.607222130787	4
0	5890	1995.021906582725	5
0	5893	1999.932889259041	4
0	5901	2002.869971100964	3
0	5909	2003.366430536591	4
0	5910	2003.595446667187	3
0	5919	2009.529121550396	2
0	5927	2018.345279293739	1
0	5933	2019.332016713248	0
0	5963	2027.628230714092	1
0	5968	2028.702142882177	0
0	5983	2029.782989052948	1
0	5989	2035.197324343537	2
0	5990	2036.694108080215	1
0	5996	2037.380447853668	0
0	6032	2050.997968878708	1
0	6034	2051.652472676974	2
0	6036	2051.891715862039	3
0	6039	2053.100248918967	2
0	6046	2057.004545074503	1
0	6051	2057.046317098156	0
0	6086	2068.716632861015	1
0	6091	2070.452195853644	0
0	6105	2075.630774835712	1
0	6108	2076.746999563329	0
0	6114	2077.382199599661	1
0	6115	2077.80388900481	0
0	6124	2078.409987742822	1
0	6130	2079.644539966605	2
0	6132	2081.634542158555	1
0	6139	2082.636554083606	0
0	6164	2088.813174839084	1
0	6165	2090.32821713858	0
0	6171	2090.942534034081	1
0	6172	2090.982269496989	0
0	6187	2097.062699327722	1
0	6192	2097.294507388978	0
0	6199	2097.7736597744	1
0	6200	2099.229805715891	0
0	6213	2101.80540558654	1
0	6221	2107.340978613122	2
0	6225	2110.099898635182	3
0	6226	2110.389893528189	2
0	6234	2111.253938093828	3
0	6236	2112.673555922636	2
0	6247	2114.490773571895	3
0	6251	2119.248580590082	4
0	6254	2119.355443361681	3
0	6260	2121.111001669243	2
0	6265	2121.369790327369	1
0	6270	2125.523916472703	0
0	6285	2130.044035675273	1
0	6286	2131.856849965456	0
0	6293	2135.21506771874	1
0	6295	2135.598747340438	2
0	6300	2145.856459242802	1
0	6307	2148.966978044563	2
0	6309	2151.594024161615	3
0	6311	2152.821080558609	4
0	6312	2155.283228284227	3
0	6317	2156.453699113637	2
0	6324	2157.103918920392	1
0	6330	2157.498416671836	2
0	6333	2161.12265702984	3
0	6334	2161.124533170827	2
0	6341	2163.331038728151	3
0	6345	2163.903688396258	4
0	6346	2166.372878670802	3
0	6356	2170.071848064063	2
0	6361	2171.584397421736	1
0	6371	2172.366243740006	2
0	6373	2173.498670207975	3
0	6375	2174.04437342808	4
0	6376	2174.614076153546	3
0	6382	2175.334755388151	2
0	6392	2176.408069886867	3
0	6394	2176.558545202558	4
0	6395	2177.666989494645	3
0	6401	2178.050324483328	4
0	6406	2179.094682049322	5
0	6407	2179.33015416068	4
0	6413	2179.550026326424	5
0	6414	2180.092749029872	4
0	6423	2182.739581999851	3
0	6430	2183.464158421473	2
0	6437	2184.4565927058	3
0	6440	2185.033472465984	2
0	6447	2188.322353671338	1
0	6452	2189.439821718407	0
0	6458	2193.116097275135	1
0	6461	2193.740014103737	0
0	6473	2200.772453203129	1
0	6475	2200.938096703547	2
0	6476	2200.994641825458	1
0	6481	2203.457089532473	0
0	6503	2210.322110035893	1
0	6506	2214.092611358664	0
0	6527	2221.603642320703	1
0	6528	2222.206690172643	0
0	6541	2228.034606447717	1
0	6542	2231.311068001309	0
0	6557	2233.555660928419	1
0	6560	2234.806946028598	0
0	6570	2237.713729899146	1
0	6574	2241.957857377355	2
0	6576	2242.616049622222	3
0	6580	2244.512838392056	4
0	6581	2247.042455932829	3
0	6589	2250.970519403806	2
0	6594	2251.352403097219	1
0	6605	2252.96012891144	2
0	6607	2253.839881075882	1
0	6612	2256.026685761019	0
0	6639	2264.795429592147	1
0	6640	2266.24706326684	0
0	6652	2272.053600719687	1
0	6659	2273.091513636699	2
0	6660	2273.336255896357	1
0	6666	2274.704388087917	0
0	6678	2277.734431257952	1
0	6680	2278.179008538059	2
0	6682	2279.481347538405	3
0	6686	2283.443800965458	4
0	6691	2290.389393023832	3
0	6697	2291.185492006967	2
0	6703	2291.359077706041	3
0	6705	2292.169953827629	2
0	6712	2294.142829340199	3
0	6714	2295.008799911078	2
0	6721	2295.769057665019	3
0	6722	2296.734538798301	2
0	6727	2297.044061284018	1
0	6732	2298.044727042516	0
0	6739	2298.738374339178	1
0	6741	2299.574499217846	2
0	6747	2303.233016762004	1
0	6753	2303.866412468334	2
0	6757	2307.208072711443	1
0	6769	2311.74379933363	2
0	6771	2313.007780838156	3
0	6773	2313.116314655132	4
0	6775	2314.323760953998	5
0	6777	2314.601105973677	6
0	6778	2315.550855660657	5
0	6785	2317.120499855619	4
0	6796	2320.034242801948	3
0	6802	2320.034680032151	4
0	6804	2320.529227706115	3
0	6810	2321.285403446963	2
0	6816	2321.52862868113	3
0	6823	2326.357672444521	4
0	6824	2326.775278950862	3
0	6831	2328.100905550286	4
0	6833	2328.544996509335	5
0	6834	2329.11804267575	4
0	6843	2331.172765140725	3
0	6849	2331.182231338173	4
0	6851	2331.923575705962	5
0	6853	2332.039621583792	4
0	6858	2332.986055499826	3
0	6864	2333.905415490109	2
0	6870	2333.977343699674	3
0	6872	2334.788808887943	2
0	6877	2336.525566822401	1
0	6884	2337.756750318921	0
0	6911	2348.737141123409	1
0	6914	2349.987550759165	2
0	6915	2350.047650277954	1
0	6920	2350.483984193921	0
0	6946	2363.881895074777	1
0	6947	2364.191418943541	0
0	6959	2367.632899586722	1
0	6960	2368.870136378743	0
0	6979	2370.890648357755	1
0	6981	2370.92228805463	2
0	6985	2373.045827883428	1
0	6990	2373.124391693135	0
0	6999	2375.979241272971	1
0	7005	2376.695489187041	2
0	7008	2377.624961008788	3
0	7009	2378.561871502631	2
0	7014	2378.954496051436	1
0	7022	2380.134947348623	2
0	7024	2381.193669726926	1
0	7030	2381.303400013442	2
0	7033	2388.02036603757	3
0	7034	2389.341168292038	2
0	7039	2390.712865144776	1
0	7045	2392.363427903957	0
0	7051	2392.931805907061	1
0	7052	2393.649285576321	0
0	7088	2403.67830779527	1
0	7089	2407.678413026246	0
0	7095	2408.996870389807	1
0	7097	2409.887812425338	2
0	7099	2410.175312829253	3
0	7101	2410.332585109962	4
0	7102	2410.437678608692	3
0	7111	2414.380066551885	2
0	7117	2416.426547097659	1
0	7123	2417.631303662611	2
0	7125	2417.700134019249	3
0	7127	2418.60231516374	2
0	7132	2418.91760023772	1
0	7138	2419.089420164201	2
0	7144	2421.614438689227	1
0	7152	2425.868941779385	0
0	7179	2430.892357012425	1
0	7181	2431.701498216272	2
0	7188	2433.654352177777	1
0	7195	2435.343619339985	0
0	7201	2436.020191923985	1
0	7202	2436.279710934683	0
0	7211	2437.044167014458	1
0	7216	2439.107092838282	2
0	7219	2439.903669496842	3
0	7221	2440.596079051328	4
0	7228	2444.487233738886	5
0	7232	2448.163953957028	6
0	7233	2448.355569353966	5
0	7239	2448.753180999829	6
0	7242	2450.088891450011	5
0	7251	2453.288550031949	4
0	7258	2453.824557613818	3
0	7263	2454.385067105827	2
0	7268	2455.202796519761	1
0	7277	2457.070968991076	0
0	7285	2459.856534751241	1
0	7287	2460.211190203843	2
0	7290	2468.264941732557	1
0	7295	2468.275388736893	0
0	7303	2470.658890503285	1
0	7306	2472.263697698324	2
0	7307	2474.152225538838	1
0	7316	2475.248429254643	0
0	7322	2475.83921501	1
0	7324	2476.359634969998	2
0	7325	2478.64833545512	1
0	7330	2479.810665734738	0
0	7339	2483.130498397833	1
0	7340	2483.465946546957	0
0	7360	2487.610145736962	1
0	7362	2489.130426173322	2
0	7364	2490.265350265596	3
0	7365	2490.329720922083	2
0	7378	2496.345976522433	3
0	7380	2496.574550522534	4
0	7382	2498.638018401781	5
0	7386	2504.461764272904	6
0	7388	2505.015604673832	7
0	7390	2505.541214005675	8
0	7393	2509.003723702061	7
0	7399	2511.250143808901	8
0	7400	2511.284531269865	7
0	7406	2512.544829192907	6
0	7411	2512.934402388288	5
0	7419	2514.581893998024	6
0	7420	2515.793006524892	5
0	7425	2515.939266006995	4
0	7431	2517.31738796501	3
0	7436	2518.559172435742	2
0	7441	2521.097085881849	1
0	7445	2521.305274089801	2
0	7448	2521.964836004215	1
0	7456	2523.540078249988	2
0	7458	2524.625920023996	1
0	7464	2525.008992726089	2
0	7465	2525.474076028835	1
0	7471	2529.953650609257	0
0	7519	2539.869277426631	1
0	7521	2541.417844926545	2
0	7523	2541.62194848413	3
0	7527	2542.833225101377	4
0	7531	2545.677014566564	5
0	7532	2546.411679882033	4
0	7537	2547.064940490061	3
0	7544	2547.493286709891	2
0	7549	2547.560812733606	1
0	7557	2548.905522000022	2
0	7559	2549.711976262012	3
0	7563	2551.652519252658	2
0	7570	2552.189272674311	3
0	7572	2553.575651308855	2
0	7578	2554.071747210854	1
0	7584	2554.439220157532	2
0	7588	2557.52549586977	1
0	7599	2559.111978321632	2
0	7601	2559.552747762417	3
0	7602	2560.401609389284	2
0	7607	2560.961251613562	1
0	7615	2563.129610095913	2
0	7618	2563.804571710809	3
0	7622	2564.845255941069	2
0	7630	2567.855876152054	1
0	7637	2571.876735382272	2
0	7638	2573.821437542263	1
0	7645	2577.329560161592	0
0	7652	2578.146006719835	1
0	7654	2578.471779913239	2
0	7656	2579.028329607647	3
0	7657	2579.527820156602	2
0	7662	2579.656804640284	1
0	7669	2580.366877211093	2
0	7678	2583.200417161428	3
0	7679	2583.49363879448	2
0	7685	2583.754618687063	3
0	7686	2585.025217538625	2
0	7694	2587.04596164459	3
0	7695	2587.542298929488	2
0	7700	2589.225073841579	1
0	7708	2591.163566856447	2
0	7709	2592.308990740323	1
0	7714	2593.536324269498	0
0	7718	2594.702468677408	1
0	7723	2596.754351655606	0
0	7748	2599.72400218035	1
0	7750	2600.957935594574	0
0	7777	2607.393123049833	1
0	7778	2608.309357021841	0
0	7785	2611.585691805315	1
0	7786	2613.121689047225	0
0	7805	2618.970909236017	1
0	7806	2620.334228565313	0
0	7826	2629.173609289578	1
0	7828	2629.548248903724	2
0	7832	2631.234358767205	3
0	7833	2631.759634920816	2
0	7839	2631.801236757668	3
0	7840	2631.855092986695	2
0	7847	2632.379976396509	1
0	7853	2634.502076764732	0
0	7864	2637.65516766081	1
0	7867	2638.001034975127	0
0	7895	2650.370112919671	1
0	7897	2651.133787420579	2
0	7899	2653.800909614236	3
0	7901	2656.101438013844	4
0	7902	2657.321901316135	3
0	7907	2657.827380295739	2
0	7913	2658.282963754083	3
0	7917	2659.802458846302	4
0	7919	2661.559035696613	3
0	7933	2666.871294598201	2
0	7939	2667.626848339142	1
0	7949	2671.523602414505	0
0	7955	2671.851480564587	1
0	7958	2672.617567543348	0
0	7964	2673.050865001387	1
0	7965	2673.117905937427	0
0	7971	2673.129527117875	1
0	7974	2674.596641795607	0
0	7981	2675.084948441928	1
0	7983	2675.753871728852	0
0	7994	2678.831979748431	1
0	7995	2678.897690857888	0
0	8002	2679.798912879156	1
0	8008	2682.6601627376	2
0	8013	2685.596911308934	1
0	8023	2687.537848325258	2
0	8025	2687.868612028052	3
0	8032	2690.019901781166	4
0	8034	2690.331844953572	5
0	8038	2692.088791471594	6
0	8043	2696.01949181336	5
0	8049	2696.862345402648	6
0	8050	2696.892468013332	5
0	8057	2697.683978252933	4
0	8064	2700.722306068525	3
0	8070	2701.469941868323	4
0	8073	2704.318126612675	5
0	8074	2705.509409314356	4
0	8081	2706.056105537204	3
0	8089	2706.439535280414	4
0	8090	2707.112509736314	3
0	8103	2710.398816030956	4
0	8104	2711.178656204682	3
0	8112	2711.727691356899	4
0	8116	2712.692563689232	3
0	8123	2713.971091057966	4
0	8128	2717.958610906114	3
0	8136	2720.779016856672	4
0	8137	2720.9522937804	3
0	8142	2721.168857270689	2
0	8147	2724.626718794058	1
0	8152	2725.394423374278	0
0	8185	2734.802643884432	1
0	8187	2735.695382479417	2
0	8188	2737.727156332823	1
0	8194	2739.237654217896	0
0	8218	2744.54923746227	1
0	8221	2745.317372156855	0
0	8227	2745.343684434252	1
0	8230	2748.358753023752	2
0	8231	2748.621037821222	1
0	8237	2749.832304466597	0
0	8260	2759.198996060343	1
0	8261	2759.604391324498	0
0	8267	2760.879288226138	1
0	8269	2761.752660239984	0
0	8278	2763.31055215107	1
0	8288	2771.756879088519	0
0	8300	2777.037874589861	1
0	8302	2777.953665911799	2
0	8303	2778.786663169493	1
0	8310	2779.890921900677	2
0	8312	2781.04913170704	3
0	8315	2782.674904494882	2
0	8320	2783.464364645981	1
0	8325	2784.476611918072	0
0	8339	2790.202577935335	1
0	8344	2792.68729747077	0
0	8361	2797.084934036534	1
0	8362	2799.109887608199	0
0	8377	2802.942796417286	1
0	8381	2803.667373513163	2
0	8382	2804.19885965687	1
0	8387	2804.253677051703	0
0	8393	2804.427634942811	1
0	8396	2805.557487479228	0
0	8403	2806.039520477481	1
0	8409	2808.916238658868	0
0	8422	2810.317257336748	1
0	8423	2811.338671879374	0
0	8440	2813.884487815668	1
0	8442	2814.047165115073	2
0	8446	2816.309575243437	1
0	8454	2817.585713111029	2
0	8455	2818.319140271759	1
0	8463	2823.453644812222	0
0	8483	2829.026974979782	1
0	8484	2829.264481740376	0
0	8509	2836.897785721559	1
0	8512	2839.948998218713	0
0	8536	2847.308734979685	1
0	8540	2848.833679075779	2
0	8542	2852.279105147319	3
0	8543	2853.047868177715	2
0	8548	2853.759413782511	1
0	8554	2856.662719844199	0
0	8563	2857.247853170597	1
0	8570	2862.022827991392	0
0	8576	2862.025722774223	1
0	8583	2866.815186770894	0
0	8592	2870.967828051319	1
0	8593	2872.936690478148	0
0	8602	2873.955140704036	1
0	8603	2876.314353479375	0
0	8639	2890.043420706835	1
0	8640	2893.997211223573	0
0	8646	2895.654409596867	1
0	8651	2902.547615109544	2
0	8652	2904.779168177896	1
0	8658	2905.780500450972	2
0	8660	2905.871457912865	3
0	8663	2906.482365638071	4
0	8665	2908.193456887153	5
0	8669	2912.356349583648	6
0	8671	2912.672716647371	7
0	8672	2914.682843191067	6
0	8680	2916.394976490678	7
0	8684	2917.692640027895	8
0	8687	2918.881015643772	7
0	8693	2920.435117179166	6
0	8698	2920.531748106194	5
0	8705	2922.252410491796	6
0	8712	2924.214724600877	7
0	8713	2924.751245810647	6
0	8718	2926.130812845216	5
0	8725	2926.81759879961	4
0	8730	2927.28043449234	3
0	8735	2927.618468288673	2
0	8746	2936.467187868704	1
0	8751	2936.618335978365	0
0	8786	2945.086960412365	1
0	8787	2945.489958309468	0
0	8809	2948.701604762651	1
0	8811	2953.652937830355	2
0	8813	2954.037199916019	3
0	8814	2954.806452466392	2
0	8821	2955.784288957214	3
0	8822	2955.90749443585	2
0	8828	2956.35878489108	1
0	8836	2959.009516524131	0
0	8853	2964.120524833208	1
0	8855	2965.436922450839	0
0	8867	2966.699808652184	1
0	8868	2967.135891220596	0
0	8877	2971.467871687958	1
0	8883	2974.005318307758	0
0	8896	2975.730521820421	1
0	8899	2976.097761282534	0
0	8935	2982.616097523339	1
0	8937	2983.112203110633	2
0	8938	2984.317109726315	1
0	8946	2984.553520140201	0
0	8960	2986.404799711746	1
0	8963	2988.9103960625	0
0	8972	2990.795990053954	1
0	8973	2991.057180317914	0
0	8991	2994.853236420951	1
0	8992	2995.069535760978	0
0	8998	2995.601175476166	1
0	9002	2996.092841792716	0
0	9008	2996.905627344855	1
0	9010	2997.268987899505	0
0	9041	3009.114327684979	1
0	9045	3011.139055491864	2
0	9046	3011.732022305158	1
0	9052	3012.219743019685	0
0	9070	3019.083730486393	1
0	9071	3019.578543936315	0
0	9098	3027.143853045999	1
0	9099	3027.815832494251	0
0	9117	3031.648465593843	1
0	9122	3033.233658025923	0
0	9141	3035.81016421595	1
0	9143	3037.882755690015	2
0	9145	3039.023114204514	3
0	9146	3039.14917426024	2
0	9152	3039.295532723201	3
0	9154	3040.048161899501	2
0	9159	3040.132356194325	1
0	9164	3040.737974874857	0
0	9172	3041.322094194844	1
0	9173	3042.894810119441	0
0	9184	3044.393182460035	1
0	9190	3047.654066292784	2
0	9191	3047.703332465507	1
0	9199	3048.327514826974	2
0	9202	3050.350517583183	3
0	9204	3050.483678124594	4
0	9206	3051.581977249867	5
0	9210	3055.857847645321	6
0	9211	3060.499610429309	5
0	9218	3063.307050825868	4
0	9224	3066.867596639981	3
0	9231	3067.121549882311	4
0	9235	3068.881203556821	3
0	9242	3071.449153347925	2
0	9247	3071.592542919589	1
0	9252	3072.450521468473	0
0	9259	3072.604334036399	1
0	9260	3073.017898919264	0
0	9271	3073.953347046899	1
0	9272	3075.725540902659	0
0	9306	3092.40410598842	1
0	9308	3093.458210564522	2
0	9309	3093.547021496826	1
0	9315	3094.119498219132	0
0	9338	3102.079131273846	1
0	9339	3102.332359161714	0
0	9351	3104.645979208201	1
0	9353	3108.237593040831	2
0	9359	3109.909406383712	1
0	9365	3111.970124318849	0
0	9386	3120.437274171236	1
0	9388	3120.43913715982	2
0	9392	3122.025156727814	3
0	9394	3123.621289471324	4
0	9397	3124.430400563538	3
0	9402	3125.429551270218	2
0	9413	3126.837552164571	1
0	9418	3127.097077757449	0
0	9435	3131.019535237529	1
0	9436	3131.392989489697	0
0	9450	3135.481739257796	1
0	9454	3138.187757114986	0
0	9469	3143.092974571182	1
0	9473	3147.836997182289	0
0	9480	3149.753006444303	1
0	9482	3151.341316442463	2
0	9485	3152.70467990668	3
0	9489	3155.671888108796	2
0	9497	3156.262574576389	3
0	9499	3158.858057642868	4
0	9500	3159.514616076877	3
0	9505	3160.955583163293	2
0	9510	3161.323076644459	1
0	9518	3163.194358657088	0
0	9527	3165.164585175057	1
0	9530	3166.262025466559	0
0	9540	3169.596437984182	1
0	9542	3169.829762373259	2
0	9543	3170.437567761741	1
0	9548	3171.23536806321	0
0	9578	3175.595336956688	1
0	9579	3175.924866389434	0
0	9611	3185.089358003339	1
0	9618	3189.138495566987	2
0	9619	3190.098706965229	1
0	9625	3191.781375999558	2
0	9628	3193.401162512487	3
0	9629	3193.939881408707	2
0	9636	3195.539547670709	3
0	9637	3195.675589868715	2
0	9643	3195.711540638291	3
0	9644	3196.110770918079	2
0	9649	3196.211338202798	1
0	9656	3198.348812854877	0
0	9664	3201.428124293314	1
0	9665	3203.369447966881	0
0	9704	3215.956803760469	1
0	9705	3222.21680267124	0
0	9727	3230.540967168025	1
0	9733	3234.970847550128	2
0	9735	3238.592949128744	3
0	9736	3239.325788912194	2
0	9742	3239.877033089578	1
0	9747	3240.25887163636	0
0	9754	3240.866631300103	1
0	9760	3243.597022784396	0
0	9781	3247.255941508096	1
0	9785	3252.784861260022	2
0	9787	3253.463268299114	3
0	9788	3254.509175514503	2
0	9794	3254.522305880632	3
0	9797	3256.022197296979	4
0	9798	3256.436560415725	3
0	9804	3259.271658068994	2
0	9809	3260.204142680014	1
0	9818	3262.202850513623	2
0	9819	3264.190849264298	1
0	9825	3264.942439098058	0
0	9867	3276.719612057729	1
0	9870	3282.105366259935	0
0	9887	3288.784394257529	1
0	9891	3291.147611905667	2
0	9892	3292.862321675662	1
0	9900	3295.4418734663	0
0	9924	3306.549043084331	1
0	9927	3312.815356561599	0
0	9947	3323.535949528263	1
0	9951	3326.424314992066	2
0	9953	3328.47518747085	1
0	9959	3330.336703323346	2
0	9961	3330.44090276374	3
0	9963	3331.044182251075	2
0	9968	3332.229020785696	1
0	9975	3333.191443361468	0
0	9981	3335.181551057855	1
0	9983	3335.825296625139	0
0	9992	3337.531276054394	1
0	9995	3339.372792118241	0
0	10004	3340.543485317594	1
0	10005	3342.34902587064	0
0	10012	3344.198786066244	1
0	10013	3344.660696602589	0
0	10019	3345.269292672126	1
0	10026	3348.248936351963	2
0	10027	3350.022427557094	1
0	10033	3350.334050790933	0
0	10059	3359.458202726666	1
0	10063	3362.357808813161	2
0	10065	3363.033889681286	3
0	10066	3363.852170023774	2
0	10072	3365.10017218559	1
0	10078	3366.142820353897	2
0	10079	3366.375029511888	1
0	10087	3368.308322082869	0
0	10095	3369.117878269057	1
0	10097	3370.680313869806	2
0	10098	3371.868486913264	1
0	10104	3373.41254529936	2
0	10106	3375.305438266704	1
0	10113	3376.198123039472	0
0	10132	3379.475290728587	1
0	10133	3381.722323316232	0
0	10145	3382.61467264913	1
0	10146	3383.0881969487	0
0	10161	3385.712741972956	1
0	10164	3387.083573446945	0
0	10180	3394.832459763537	1
0	10183	3396.943976741422	2
0	10188	3399.801757655947	1
0	10197	3400.886477316984	2
0	10199	3401.418457315828	3
0	10201	3403.130867454128	4
0	10203	3406.880379263641	5
0	10204	3407.763674914341	4
0	10211	3408.903963565875	5
0	10214	3410.088964190439	6
0	10218	3412.075876417615	7
0	10219	3413.13896680018	6
0	10225	3413.854958982552	7
0	10227	3415.684503718409	6
0	10233	3416.717235800123	7
0	10236	3419.844963408934	6
0	10242	3422.163851008382	5
0	10248	3422.34875164356	6
0	10250	3423.370650572418	5
0	10259	3424.826499379095	4
0	10264	3425.08848481418	3
0	10271	3428.680238380494	2
0	10277	3433.19284934679	1
0	10282	3434.562104214093	0
0	10292	3438.712790749478	1
0	10293	3439.461546304506	0
0	10299	3439.68295842872	1
0	10303	3439.829359757813	0
0	10319	3442.420614212649	1
0	10321	3443.994302530551	2
0	10324	3446.391345425104	3
0	10325	3446.537837335943	2
0	10332	3450.099071808813	1
0	10342	3451.540696181067	2
0	10344	3452.125981272214	3
0	10345	3453.868080031452	2
0	10351	3454.654403590221	1
0	10356	3455.323346217073	0
0	10379	3459.342815276642	1
0	10386	3462.976762455057	0
0	10392	3463.596687125469	1
0	10394	3466.73892234707	0
0	10412	3469.526403126351	1
0	10416	3472.2195781573	2
0	10418	3472.915968292946	3
0	10419	3473.524755305035	2
0	10424	3475.200987147266	1
0	10431	3476.764730096479	0
0	10438	3477.958430449463	1
0	10442	3479.371197599923	2
0	10444	3479.394807432997	3
0	10445	3479.472961857336	2
0	10453	3480.785032585573	3
0	10462	3482.822087727365	4
0	10463	3483.80276410915	3
0	10469	3483.930906030526	4
0	10474	3486.322168511619	5
0	10476	3487.222887381565	6
0	10478	3490.864634050888	7
0	10480	3491.093405393484	8
0	10481	3493.859260894028	7
0	10486	3493.899569327227	6
0	10491	3493.90466909208	5
0	10497	3494.248068201125	4
0	10503	3494.744781131787	5
0	10504	3495.289186888566	4
0	10513	3498.18827307687	3
0	10517	3498.345105114343	4
0	10523	3504.750548997528	3
0	10528	3506.487648468149	2
0	10533	3508.667912998555	1
0	10539	3509.112272650949	2
0	10541	3509.792877631298	3
0	10546	3511.414992078292	2
0	10555	3513.264846985928	1
0	10564	3514.41037817494	0
0	10570	3514.413487492092	1
0	10573	3515.350687566374	0
0	10579	3515.750520060453	1
0	10584	3517.70661970934	2
0	10586	3518.055253767394	3
0	10589	3520.039270391477	4
0	10590	3521.580638021222	3
0	10596	3521.641357920725	4
0	10597	3522.519125968656	3
0	10604	3526.753841684928	2
0	10611	3530.227019123896	1
0	10616	3531.915158472793	0
0	10622	3532.05283793954	1
0	10623	3532.189564594936	0
0	10630	3533.136638396485	1
0	10631	3533.654262034091	0
0	10654	3535.603646968785	1
0	10656	3535.753354156336	2
0	10658	3535.89425330045	3
0	10660	3536.903454810657	4
0	10665	3538.797915644032	3
0	10670	3539.840405373727	2
0	10675	3540.777425810576	1
0	10681	3540.958948304351	0
0	10685	3541.626205866974	1
0	10695	3548.005550417893	0
0	10716	3553.106378856543	1
0	10717	3556.086701075853	0
0	10724	3558.625713843312	1
0	10725	3560.178689169591	0
0	10753	3575.429416856709	1
0	10754	3577.195488726884	0
0	10772	3581.850767862288	1
0	10773	3584.719128419143	0
0	10788	3588.093918748718	1
0	10793	3592.435924394389	0
0	10811	3595.123570773944	1
0	10819	3600.751150072608	2
0	10820	3602.585855986339	1
0	10826	3605.604920966813	0
0	10841	3608.257390675913	1
0	10842	3608.937139567089	0
0	10854	3617.367544691224	1
0	10855	3617.469679833967	0
0	10867	3618.133651180872	1
0	10870	3621.009171096207	0
0	10886	3625.179962975765	1
0	10891	3627.033583465508	0
0	10899	3628.618436211288	1
0	10900	3629.03990385478	0
0	10917	3632.914553850113	1
0	10918	3633.326263554006	0
0	10932	3636.641944862348	1
0	10933	3642.598614232653	0
0	10949	3648.973843912043	1
0	10951	3649.436062646861	2
0	10952	3649.880190357128	1
0	10957	3650.108249420138	0
0	10973	3657.247222386105	1
0	10976	3657.708224998377	0
0	10983	3658.622244906563	1
0	10984	3658.839912040677	0
0	10992	3659.220785348451	1
0	10993	3660.357727798669	0
0	11006	3662.999878737292	1
0	11007	3663.335941050562	0
0	11030	3666.847192331897	1
0	11034	3669.585984684328	0
0	11045	3674.279210214744	1
0	11048	3675.598989452477	2
0	11052	3676.985162856121	1
0	11057	3678.129447711405	0
0	11065	3680.098644721014	1
0	11072	3682.485517674482	2
0	11073	3683.131031800936	1
0	11081	3683.891889895584	2
0	11083	3684.210169812124	1
0	11089	3684.321432462749	2
0	11093	3687.139628647792	3
0	11096	3689.702668328276	2
0	11103	3690.28270611406	3
0	11104	3691.151222641552	2
0	11112	3692.887034286885	3
0	11113	3692.962957321849	2
0	11118	3693.483907632618	1
0	11124	3693.867728758742	2
0	11126	3695.012347821491	1
0	11132	3695.424797254693	2
0	11133	3695.907772293695	1
0	11139	3696.795445437297	0
0	11150	3698.787799616298	1
0	11151	3699.257635512644	0
0	11158	3702.856550884257	1
0	11160	3702.888263336231	2
0	11163	3705.564170142493	3
0	11167	3705.983799211379	4
0	11170	3708.094674028636	3
0	11177	3712.140094903175	4
0	11178	3712.346259004157	3
0	11186	3714.246885244397	4
0	11189	3716.283579312105	3
0	11195	3716.745617805758	4
0	11197	3717.129936778704	5
0	11199	3719.975757936994	4
0	11205	3720.544757357688	3
0	11211	3720.74260792199	4
0	11212	3720.951117894832	3
0	11219	3721.980852746102	4
0	11221	3723.30819534312	3
0	11226	3723.770862821438	2
0	11234	3725.123312208401	3
0	11235	3725.466991669381	2
0	11240	3726.509680709016	1
0	11245	3726.77210226397	0
0	11266	3731.621697030219	1
0	11268	3732.366374649619	2
0	11272	3732.888349607184	1
0	11279	3734.992598387419	0
0	11288	3737.838044738364	1
0	11290	3737.856570447527	2
0	11297	3743.053696025914	3
0	11298	3743.079940787106	2
0	11304	3744.112909647272	3
0	11306	3744.620229207297	2
0	11312	3745.980229539471	1
0	11318	3746.186550855261	2
0	11320	3746.624832671301	1
0	11326	3748.462401699059	0
0	11340	3751.997032144654	1
0	11342	3752.247911778958	2
0	11343	3752.424192322537	1
0	11348	3752.595666982535	0
0	11363	3754.557977714619	1
0	11365	3757.349074097527	0
0	11379	3764.341349605023	1
0	11381	3765.060763252141	2
0	11383	3766.78587855425	3
0	11384	3768.788786805649	2
0	11390	3771.426710496695	1
0	11396	3772.4740406582	0
0	11408	3774.351024458271	1
0	11413	3784.421385937154	0
0	11419	3784.507549153785	1
0	11421	3785.884960125847	0
0	11428	3786.049315326644	1
0	11429	3786.4417596822	0
0	11441	3787.291648469339	1
0	11442	3788.766043774881	0
0	11461	3798.311771417776	1
0	11462	3798.429643704105	0
0	11476	3803.411229254216	1
0	11479	3804.864107930966	0
0	11506	3812.365793879357	1
0	11508	3813.029933896967	2
0	11509	3813.362412501358	1
0	11521	3817.56241193842	2
0	11526	3821.06780049387	1
0	11532	3821.235324215631	2
0	11534	3822.122453191569	1
0	11539	3822.42659146416	0
0	11563	3830.11053078931	1
0	11567	3831.71748079158	2
0	11568	3831.730552337065	1
0	11575	3832.506486571183	0
0	11581	3832.723855718276	1
0	11584	3833.278889670037	2
0	11586	3834.023628237841	1
0	11592	3835.098248398009	0
0	11598	3835.254410676779	1
0	11599	3836.679473709316	0
0	11605	3836.755937803222	1
0	11607	3837.094993122699	2
0	11608	3837.128162898554	1
0	11614	3837.423701848531	2
0	11616	3837.902005876958	3
0	11619	3839.134333756388	2
0	11625	3839.627636532121	3
0	11626	3840.611898908212	2
0	11632	3841.625954226182	3
0	11636	3844.324627276805	4
0	11637	3844.425557661515	3
0	11643	3845.480572406123	2
0	11650	3846.940253630721	1
0	11655	3848.992941177265	0
0	11674	3854.160614406863	1
0	11679	3856.037521800864	2
0	11682	3859.244858641537	3
0	11683	3859.629028249613	2
0	11691	3861.412824087334	3
0	11692	3863.314256807579	2
0	11697	3864.062804047794	1
0	11702	3864.727932006064	0
0	11708	3864.852668547449	1
0	11710	3866.155480689301	0
0	11722	3868.805135486744	1
0	11724	3870.226215559852	0
0	11742	3874.148846857788	1
0	11749	3876.305823229812	0
0	11772	3883.620618000802	1
0	11774	3886.162542457649	2
0	11775	3887.88228040334	1
0	11781	3891.84069898831	0
0	11794	3894.549374722736	1
0	11795	3894.665350283872	0
0	11807	3897.12806464273	1
0	11810	3897.496986978551	0
0	11819	3898.062739648364	1
0	11824	3901.067701508344	2
0	11825	3901.58683893046	1
0	11830	3902.485014129345	0
0	11845	3904.763493950912	1
0	11848	3905.778222863197	0
0	11875	3911.48271749719	1
0	11879	3912.575552617211	0
0	11889	3915.056974436213	1
0	11894	3918.727082927868	0
0	11906	3923.081050884958	1
0	11908	3923.888705609946	2
0	11910	3924.402645985321	3
0	11913	3924.983343093768	2
0	11919	3926.256209651368	1
0	11926	3927.068501831129	2
0	11928	3927.228491558663	3
0	11930	3927.690927038104	4
0	11932	3927.908557375928	5
0	11936	3928.480527630698	4
0	11945	3933.209408129581	5
0	11947	3934.438262004974	6
0	11950	3937.189247350672	5
0	11955	3938.14674156218	4
0	11962	3938.752489752613	5
0	11964	3939.595888883255	4
0	11971	3941.124687162339	3
0	11977	3943.435422626123	4
0	11978	3943.756647607977	3
0	11985	3944.173202474417	4
0	11988	3947.443378914781	5
0	11991	3948.359581415848	6
0	11993	3954.844679395764	7
0	11996	3957.014756824358	6
0	12002	3961.903733117894	5
0	12010	3965.190732991297	4
0	12016	3967.908575259156	3
0	12021	3968.032564361833	2
0	12026	3968.189198496227	1
0	12031	3968.473453589496	0
0	12040	3969.957382371964	1
0	12043	3972.913690225102	0
0	12061	3975.662549731058	1
0	12062	3976.054388102396	0
0	12080	3978.450258456197	1
0	12084	3981.502848760086	0
0	12106	3990.494567334915	1
0	12108	3991.42872609374	2
0	12110	3991.876176628507	3
0	12112	3995.962872538896	4
0	12116	3996.210511552206	5
0	12117	3996.530627254032	4
0	12122	3997.302342074905	3
0	12128	3998.682021486358	2
0	12133	3998.920175538762	1
0	12139	3999.135846383227	2
0	12142	3999.619817387645	1
0	12150	4000.770111481961	2
0	12154	4003.157534135782	3
0	12157	4006.414372554205	2
0	12163	4006.901804522972	1
0	12168	4007.232697081645	0
0	12187	4010.382056039597	1
0	12188	4011.298393908965	0
0	12195	4012.907168344647	1
0	12196	4013.858592559252	0
0	12205	4017.380795647653	1
0	12206	4019.00886800744	0
0	12231	4027.145268767941	1
0	12235	4029.502320043528	2
0	12237	4030.512111415486	3
0	12240	4032.092682019794	2
0	12245	4032.247318535901	1
0	12252	4039.924206641713	0
0	12268	4043.89730636281	1
0	12269	4044.424792578695	0
0	12295	4048.46011653359	1
0	12301	4049.960496619707	2
0	12303	4050.646763192271	3
0	12304	4057.056651808813	2
0	12309	4057.163044489187	1
0	12316	4059.303321436136	0
0	12328	4060.477054594954	1
0	12332	4061.919515753779	2
0	12336	4062.433867813356	3
0	12338	4062.921221531694	4
0	12339	4063.346137009966	3
0	12346	4063.758884558713	4
0	12348	4063.911707069827	5
0	12349	4064.819481686315	4
0	12355	4066.373264866757	3
0	12360	4068.049207549556	2
0	12369	4073.040430471916	1
0	12375	4073.26115715064	2
0	12376	4073.398916639822	1
0	12382	4077.413341579176	0
0	12401	4079.933244680741	1
0	12403	4080.199075219787	2
0	12405	4080.42493573271	1
0	12412	4082.032932799265	2
0	12414	4082.051329318396	3
0	12415	4085.329669987338	2
0	12422	4085.940044743138	3
0	12423	4088.412769583616	2
0	12430	4089.585567593724	3
0	12433	4090.795053775466	2
0	12441	4094.919558187221	3
0	12442	4096.738934840069	2
0	12451	4097.49096276402	3
0	12452	4097.630960626637	2
0	12459	4098.827249564846	1
0	12465	4100.199930733205	0
0	12485	4105.939481858205	1
0	12488	4106.564326916314	0
0	12502	4113.090243686491	1
0	12503	4113.955354035315	0
0	12517	4128.925771363743	1
0	12519	4129.562416726159	2
0	12520	4129.61263744737	1
0	12529	4131.878619198318	0
0	12535	4132.000347034309	1
0	12537	4133.013626274368	0
0	12550	4136.175467833085	1
0	12552	4136.59259447884	2
0	12555	4137.703591497428	1
0	12566	4145.117596838551	0
0	12574	4146.652880813673	1
0	12575	4149.155018935836	0
0	12582	4150.688210746437	1
0	12583	4150.831686084025	0
0	12590	4153.428121386507	1
0	12593	4157.453373104894	0
0	12599	4157.654228403834	1
0	12601	4157.725894101632	2
0	12603	4158.507261821052	1
0	12609	4158.611840775316	2
0	12610	4159.375585285027	1
0	12617	4162.026820665451	0
0	12624	4163.713209942072	1
0	12625	4164.145105211121	0
0	12631	4166.570635585338	1
0	12632	4167.300684878458	0
0	12639	4169.01530977956	1
0	12640	4169.545590687905	0
0	12669	4173.95224557102	1
0	12671	4175.180111856356	2
0	12672	4176.574720640643	1
0	12680	4178.118145423898	0
0	12695	4182.304950396828	1
0	12696	4182.653263894115	0
0	12703	4184.388351750095	1
0	12705	4185.679614512672	0
0	12717	4187.370620192139	1
0	12718	4188.367079081108	0
0	12727	4189.719996592006	1
0	12728	4197.139415888484	0
0	12744	4199.534430022058	1
0	12746	4204.423721284965	0
0	12760	4208.306706843503	1
0	12762	4208.308628292777	2
0	12764	4209.09975401169	3
0	12766	4210.620532649208	4
0	12770	4211.051626700804	5
0	12772	4214.746954101237	6
0	12774	4214.828215846319	7
0	12775	4215.323605514373	6
0	12783	4217.141708782941	5
0	12788	4217.547586210247	4
0	12794	4219.360751184845	3
0	12800	4219.950856619496	2
0	12806	4220.062500210706	1
0	12814	4224.629540983802	0
0	12821	4226.955591445704	1
0	12824	4228.809475906733	0
0	12830	4231.930890577844	1
0	12832	4233.6915588574	2
0	12834	4234.235666301516	3
0	12836	4234.356784408102	4
0	12838	4238.298402017988	5
0	12842	4241.191062090742	6
0	12844	4242.759560524828	7
0	12846	4242.817726351516	8
0	12851	4253.599366282183	7
0	12857	4253.96227623116	8
0	12859	4254.15318901283	9
0	12862	4256.155653617502	10
0	12863	4256.814883161058	9
0	12868	4256.888890086039	8
0	12874	4257.028862999	7
0	12879	4257.676220496866	6
0	12884	4259.508985072793	5
0	12890	4261.653822983593	4
0	12897	4263.099406735679	5
0	12898	4263.957021159148	4
0	12904	4264.974852035128	5
0	12906	4265.829044476936	4
0	12911	4265.829962254554	3
0	12916	4266.897006523645	2
0	12920	4268.253032813063	3
0	12922	4272.482657075802	4
0	12930	4275.603449011781	3
0	12939	4278.783539138398	4
0	12942	4281.710339433279	3
0	12947	4282.171063172528	2
0	12952	4283.084811678388	1
0	12957	4283.726742487716	0
0	12976	4287.236629943222	1
0	12980	4290.715136289385	2
0	12983	4291.636452400613	3
0	12984	4291.899313801693	2
0	12990	4291.976121993823	3
0	12992	4292.458531177707	2
0	12998	4293.104938319729	1
0	13005	4296.259275690132	0
0	13041	4310.830659397065	1
0	13044	4315.405985730193	0
0	13052	4316.254154359433	1
0	13054	4317.19234119532	2
0	13057	4319.333837984077	1
0	13066	4320.35403844351	2
0	13069	4326.967922721503	3
0	13070	4330.868258640523	2
0	13078	4332.51485024312	3
0	13080	4333.408205769045	4
0	13082	4335.45037965045	5
0	13083	4335.883354329557	4
0	13088	4336.792524707618	3
0	13093	4337.298022529889	2
0	13099	4337.912665551871	1
0	13105	4338.442032282813	2
0	13106	4338.614510247156	1
0	13111	4339.484322526436	0
0	13119	4340.294047776903	1
0	13125	4341.835571998155	2
0	13126	4343.291457094946	1
0	13131	4343.464676329482	0
0	13138	4344.168685193934	1
0	13139	4344.810185220834	0
0	13163	4351.877539405141	1
0	13165	4352.784102871039	2
0	13169	4358.154743426911	3
0	13172	4358.794142520725	4
0	13174	4359.951963035773	3
0	13183	4364.351366438123	4
0	13184	4365.683947778457	3
0	13191	4366.951875797253	4
0	13199	4370.215030322679	5
0	13201	4370.909506261218	6
0	13202	4371.303702848672	5
0	13207	4372.699537337625	4
0	13212	4373.851072657962	3
0	13219	4374.545549247701	2
0	13226	4376.721049178901	3
0	13229	4377.069755556927	2
0	13235	4379.009258139533	1
0	13240	4379.451372406307	0
0	13251	4380.807162371847	1
0	13255	4383.252576285203	2
0	13256	4384.813689822308	1
0	13263	4388.006493861452	2
0	13264	4389.066744926358	1
0	13270	4389.220263825405	0
0	13276	4389.900936323781	1
0	13278	4390.469441448631	0
0	13297	4398.541458941917	1
0	13300	4399.564638873061	2
0	13302	4399.808872714641	3
0	13303	4400.516685152215	2
0	13308	4403.700515658212	1
0	13318	4404.931147145002	0
0	13335	4406.54048082467	1
0	13336	4407.636830569016	0
0	13362	4413.095275858808	1
0	13366	4414.062689931894	2
0	13367	4414.081854570786	1
0	13373	4415.155660192879	0
0	13387	4416.785380372807	1
0	13395	4420.767516101092	0
0	13412	4431.650132071857	1
0	13414	4432.259527421226	2
0	13416	4436.148458227115	3
0	13418	4437.052683128178	4
0	13420	4439.523348072431	5
0	13421	4440.927874447901	4
0	13430	4444.823828965604	5
0	13431	4445.143165785269	4
0	13437	4446.036219022782	3
0	13446	4447.117490951413	2
0	13453	4447.834057584981	1
0	13459	4448.566323859477	2
0	13461	4450.128986767815	1
0	13466	4450.61304012746	0
0	13474	4451.79355782182	1
0	13475	4452.639844871559	0
0	13481	4452.767827973319	1
0	13489	4455.013551215912	2
0	13493	4455.356332618937	3
0	13494	4455.494809791142	2
0	13499	4456.088229069958	1
0	13511	4460.399532678079	0
0	13529	4464.57157341268	1
0	13531	4466.215224424958	2
0	13532	4466.831388594896	1
0	13539	4470.147558624264	0
0	13551	4472.093024623834	1
0	13553	4472.609483583342	2
0	13556	4481.071382363055	1
0	13562	4481.961310976895	2
0	13565	4482.954426252053	3
0	13566	4483.041181960738	2
0	13572	4484.968160830888	1
0	13577	4485.854577366354	0
0	13600	4498.331483411119	1
0	13602	4498.892349287074	2
0	13603	4499.358391076132	1
0	13611	4499.91575432706	0
0	13631	4503.935791290588	1
0	13632	4506.253502902057	0
0	13643	4511.278672491728	1
0	13649	4515.21719775352	0
0	13681	4521.85908234446	1
0	13683	4523.502171909764	2
0	13684	4523.780401063432	1
0	13689	4524.028233050344	0
0	13711	4529.715798673579	1
0	13714	4530.758476537874	0
0	13721	4533.499649613366	1
0	13722	4534.451424262265	0
0	13735	4537.741619140682	1
0	13738	4538.81384284334	0
0	13760	4544.095953182973	1
0	13764	4548.684308715087	2
0	13768	4550.452839628102	3
0	13769	4550.807701583866	2
0	13774	4550.951690608391	1
0	13780	4553.470214688526	0
0	13786	4554.253910972125	1
0	13788	4555.085374980765	2
0	13791	4556.304259438111	1
0	13800	4558.882648647292	0
0	13816	4564.750092768376	1
0	13820	4565.904269528043	2
0	13821	4566.908448648742	1
0	13826	4567.263332018474	0
0	13837	4567.504686629744	1
0	13841	4570.066210452929	2
0	13847	4573.706275757332	1
0	13852	4573.752291661248	0
0	13859	4574.163233448235	1
0	13862	4576.160430935492	2
0	13863	4578.23742354782	1
0	13868	4579.270568119163	0
0	13875	4580.219711856681	1
0	13877	4581.685476524858	0
0	13922	4603.779227345824	1
0	13924	4603.884730129278	2
0	13927	4607.35753755558	1
0	13935	4608.544028314	2
0	13937	4610.660123418772	3
0	13940	4612.169950246966	2
0	13946	4614.578734575001	1
0	13952	4618.126800146927	0
0	13958	4618.322099294114	1
0	13959	4618.453365228099	0
0	13978	4623.35177202095	1
0	13980	4625.341738100533	0
0	13994	4629.850813962339	1
0	13995	4629.944784947894	0
0	14013	4634.059907240555	1
0	14015	4635.175893037494	2
0	14016	4635.612205949419	1
0	14022	4638.42612250739	0
0	14032	4640.208755585792	1
0	14036	4642.760250053337	2
0	14041	4644.836362551777	1
0	14049	4647.075721354858	0
0	14056	4650.0142088192	1
0	14060	4655.573276703882	2
0	14062	4656.431766609665	3
0	14063	4657.594020260386	2
0	14068	4658.450289241759	1
0	14075	4658.962843279379	2
0	14077	4659.010260745315	3
0	14081	4661.191668832576	2
0	14086	4661.197513905126	1
0	14092	4663.135376064955	0
0	14119	4671.050552712368	1
0	14123	4673.034562367127	2
0	14125	4673.176504615827	1
0	14132	4676.40933738197	0
0	14149	4680.259800255902	1
0	14151	4685.166888451443	0
0	14157	4685.232563131834	1
0	14158	4685.769976738987	0
0	14173	4687.167150725713	1
0	14174	4687.678983635268	0
0	14190	4692.427026924907	1
0	14195	4697.094805919232	2
0	14196	4698.577887360024	1
0	14204	4700.011805845602	2
0	14205	4700.678805615498	1
0	14210	4702.004530193332	0
0	14224	4705.636778587866	1
0	14230	4706.015006193522	2
0	14232	4706.474374170495	1
0	14237	4706.492594992263	0
0	14243	4706.493898157328	1
0	14244	4707.068821316744	0
0	14261	4710.015725354689	1
0	14263	4710.081217550967	2
0	14266	4710.927129888189	3
0	14268	4711.04973052176	4
0	14269	4711.679805427522	3
0	14278	4716.558133311291	2
0	14286	4719.486070762714	3
0	14287	4720.334443409636	2
0	14293	4721.20981246497	1
0	14300	4722.035220879884	2
0	14302	4723.729774587956	3
0	14305	4724.265388143709	2
0	14310	4724.393933330935	1
0	14316	4725.483675532285	2
0	14319	4728.298661328212	1
0	14324	4728.455554462453	0
0	14332	4732.328128515482	1
0	14334	4733.261266434839	0
0	14343	4738.172514087728	1
0	14345	4738.230014409686	2
0	14351	4738.69595175623	3
0	14352	4738.824438841741	2
0	14357	4739.166256718779	1
0	14362	4740.555675038336	0
0	14419	4760.130349604243	1
0	14424	4761.003435682069	0
0	14436	4766.306863908542	1
0	14439	4767.034509217828	0
0	14450	4770.444909026161	1
0	14454	4772.557884356137	0
0	14478	4781.309844559124	1
0	14480	4787.09521256787	2
0	14481	4788.098294746903	1
0	14489	4791.817020240547	0
0	14495	4791.994310326007	1
0	14497	4792.184481409037	0
0	14515	4796.981745178555	1
0	14517	4797.951925353465	0
0	14524	4800.154576139418	1
0	14525	4800.651216254083	0
0	14543	4804.728589406614	1
0	14545	4805.938734110353	0
0	14564	4812.475186185867	1
0	14565	4812.888899523908	0
0	14584	4817.35004064439	1
0	14586	4818.30662201914	2
0	14587	4818.880868682515	1
0	14594	4820.405914517129	2
0	14601	4825.055109634929	1
0	14608	4827.883732907204	2
0	14609	4828.198086953205	1
0	14619	4834.25611548725	2
0	14621	4835.418715305901	3
0	14622	4836.797771823827	2
0	14628	4837.748922705781	1
0	14635	4837.88242448046	2
0	14640	4840.564741288993	1
0	14646	4841.052957705892	2
0	14647	4841.51244687439	1
0	14653	4843.98274808226	0
0	14664	4844.97336775577	1
0	14667	4846.109571415152	0
0	14687	4853.322018148125	1
0	14691	4856.67942736344	0
0	14706	4860.223731814043	1
0	14708	4861.174640896351	2
0	14709	4863.0929595646	1
0	14718	4866.499503634632	2
0	14720	4867.381938975527	3
0	14721	4867.681283797632	2
0	14727	4869.351409597954	1
0	14732	4870.31569308001	0
0	14772	4878.982271291623	1
0	14773	4878.982394408586	0
0	14785	4880.300336353406	1
0	14786	4881.909232366988	0
0	14814	4890.884459074204	1
0	14816	4891.268733703563	2
0	14818	4892.025458453412	3
0	14820	4892.712273157346	4
0	14826	4895.390276930642	5
0	14827	4896.41962135872	4
0	14834	4896.562041940856	5
0	14836	4898.598195968008	4
0	14843	4899.454714597251	5
0	14849	4904.404651955053	6
0	14850	4904.638080354326	5
0	14858	4905.724321718804	6
0	14860	4906.398844597572	5
0	14867	4908.563234825772	6
0	14868	4908.874690024157	5
0	14874	4909.453284991641	4
0	14879	4909.553423539709	3
0	14885	4912.680077458733	2
0	14891	4913.407532496642	3
0	14893	4913.701540073142	4
0	14895	4914.592608048165	3
0	14901	4914.731797418621	4
0	14902	4915.151914978228	3
0	14911	4916.003317134296	4
0	14914	4916.233020933792	5
0	14916	4917.559175816636	6
0	14917	4918.157680020196	5
0	14924	4919.663904596875	4
0	14931	4920.354581164175	5
0	14933	4920.93638875281	6
0	14935	4921.303943960755	7
0	14939	4922.308212661068	8
0	14941	4923.561412021101	9
0	14942	4923.622394601137	8
0	14949	4930.293853116771	7
0	14955	4931.600521886355	8
0	14958	4932.66362597106	9
0	14959	4933.65099607911	8
0	14965	4935.487202569114	7
0	14973	4939.461410919278	8
0	14975	4942.941926457205	9
0	14976	4943.514448461884	8
0	14981	4944.312446040227	7
0	14987	4945.179922018515	8
0	14989	4946.133676882375	7
0	14997	4946.55515508502	8
0	14999	4946.865602956714	9
0	15003	4947.302209101478	10
0	15006	4952.341865777038	9
0	15013	4953.803512847968	10
0	15015	4954.755311655034	11
0	15016	4955.316465359766	10
0	15022	4956.960905801689	9
0	15027	4957.313919112328	8
0	15033	4958.198506274138	9
0	15035	4959.725231025955	10
0	15036	4961.565147345001	9
0	15042	4962.228376511306	10
0	15045	4962.336236584242	9
0	15050	4963.544250745872	8
0	15057	4965.696676268708	7
0	15062	4966.293565098456	6
0	15067	4971.583486698604	5
0	15075	4975.980044929814	4
0	15080	4976.382028144112	3
0	15090	4981.698951039712	4
0	15092	4982.69596721489	5
0	15093	4986.818305534569	4
0	15101	4989.839666085496	3
0	15106	4990.509599082799	2
0	15112	4990.896236037137	1
0	15120	4993.169623608415	0
0	15126	4994.266763925416	1
0	15127	4996.219648534634	0
0	15140	4999.016585006006	1
0	15141	5000.593928636456	0
0	15152	5003.52626108938	1
0	15153	5003.892756288521	0
0	15172	5008.026076580055	1
0	15173	5009.174845666195	0
0	15185	5012.505193756558	1
0	15187	5013.903033346055	2
0	15188	5014.889535354299	1
0	15193	5015.329988698486	0
0	15207	5017.932126346232	1
0	15209	5021.93156880764	2
0	15211	5022.395904043304	3
0	15214	5025.330520999138	2
0	15219	5025.947706886589	1
0	15224	5026.43049217962	0
0	15233	5030.854916312723	1
0	15239	5032.779015402637	2
0	15241	5034.091862648593	1
0	15247	5035.059162632128	2
0	15251	5039.664207511897	1
0	15258	5040.514351819341	2
0	15260	5041.969316863524	1
0	15267	5043.710523277966	2
0	15268	5044.380732003224	1
0	15273	5044.596459381706	0
0	15308	5053.629375906706	1
0	15311	5054.121785446641	0
0	15327	5056.216093047212	1
0	15331	5062.779077198965	2
0	15333	5063.560182712351	3
0	15337	5065.721199373786	4
0	15342	5067.619610056102	3
0	15349	5069.742359748003	4
0	15352	5070.583369371975	3
0	15363	5073.321566275448	4
0	15365	5075.725043931747	5
0	15370	5080.101865630516	4
0	15376	5081.333720063506	3
0	15382	5082.406647877259	2
0	15387	5083.537299437251	1
0	15395	5086.024824261384	0
0	15401	5086.198176976264	1
0	15402	5086.475119489607	0
0	15413	5087.695807418279	1
0	15415	5088.220687908991	0
0	15421	5088.442160847873	1
0	15422	5088.788576167832	0
0	15428	5089.321970951364	1
0	15430	5089.881080198406	2
0	15432	5090.548909920902	3
0	15433	5091.080761543087	2
0	15439	5091.722280089669	1
0	15445	5092.951600141517	0
0	15464	5101.513403078824	1
0	15468	5102.962958498643	0
0	15475	5104.81940010249	1
0	15476	5105.089616885746	0
0	15482	5105.410825418102	1
0	15487	5107.810636845074	2
0	15488	5108.088365241164	1
0	15495	5109.321932351335	2
0	15497	5110.295114554013	3
0	15500	5115.684276395853	2
0	15506	5119.40313394096	1
0	15512	5122.818203604697	0
0	15530	5128.423018334076	1
0	15531	5131.51761705558	0
0	15541	5133.761303579278	1
0	15543	5134.311869914459	2
0	15545	5135.64271872324	3
0	15552	5139.635784188444	4
0	15554	5142.041353728798	3
0	15560	5142.383268121568	2
0	15565	5142.597284546628	1
0	15570	5142.701407396853	0
0	15576	5144.349160878889	1
0	15583	5146.28941103219	0
0	15589	5147.526485367185	1
0	15590	5147.716834657682	0
0	15614	5155.024983752731	1
0	15616	5155.067977287527	2
0	15618	5155.820171467807	3
0	15619	5156.558349331587	2
0	15626	5158.832864045266	3
0	15629	5161.556192710687	2
0	15634	5163.968301322944	1
0	15639	5164.105545655318	0
0	15653	5167.860963002964	1
0	15658	5169.122476115371	2
0	15660	5169.673642947452	3
0	15665	5171.739101985758	2
0	15670	5172.195339789912	1
0	15681	5176.051540025267	2
0	15683	5176.850337047562	3
0	15684	5177.042190580992	2
0	15692	5180.241319151902	1
0	15698	5180.482154679872	2
0	15702	5181.408991941624	1
0	15707	5181.609485539325	0
0	15745	5191.179264726121	1
0	15747	5191.876366130437	2
0	15749	5192.176663122624	3
0	15752	5194.507883452446	4
0	15754	5197.974524266241	5
0	15756	5199.932585614336	6
0	15758	5201.472307222603	7
0	15759	5202.888864128103	6
0	15764	5202.999141442082	5
0	15770	5205.509705846094	4
0	15775	5205.723392720513	3
0	15780	5206.262032699911	2
0	15787	5207.86190082113	1
0	15794	5208.258652130144	0
0	15816	5212.119723012697	1
0	15824	5214.9327761518	2
0	15825	5216.078180720777	1
0	15831	5216.476955492623	2
0	15837	5220.065054289905	3
0	15838	5220.354893178484	2
0	15844	5221.072777808908	3
0	15846	5221.941230563152	2
0	15854	5223.889887972569	1
0	15859	5223.998288134098	0
0	15865	5224.13158600703	1
0	15870	5227.07995892756	2
0	15871	5227.134432199482	1
0	15876	5227.440813194303	0
0	15898	5233.269796601495	1
0	15901	5236.070781008029	0
0	15908	5237.275749131769	1
0	15910	5239.115684548853	0
0	15921	5240.201068975092	1
0	15922	5240.215095380627	0
0	15933	5240.639248094112	1
0	15934	5241.821788887921	0
0	15969	5250.059684114319	1
0	15970	5250.833437398784	0
0	15983	5255.155760739483	1
0	15986	5256.299815929267	2
0	15987	5256.512208032714	1
0	15992	5257.591325670897	0
0	15998	5257.784420912565	1
0	16002	5259.507294265623	2
0	16003	5263.32134801721	1
0	16011	5264.600617296011	0
0	16029	5266.740422742263	1
0	16032	5268.772287540209	2
0	16033	5271.28677112425	1
0	16038	5271.502779552527	0
0	16049	5274.280881301529	1
0	16052	5275.803977540639	2
0	16053	5275.879912420238	1
0	16060	5278.817357502981	0
0	16066	5279.627995571008	1
0	16068	5279.777433242761	2
0	16070	5280.31244859243	3
0	16071	5280.38376278848	2
0	16078	5283.252928815453	1
0	16084	5283.40253771821	2
0	16085	5283.85281125571	1
0	16090	5284.624229141346	0
0	16115	5290.566993381405	1
0	16118	5292.776374579546	2
0	16125	5295.141960107413	1
0	16132	5298.312014657189	2
0	16135	5301.986432943522	1
0	16140	5302.21934019242	0
0	16154	5305.317843418904	1
0	16155	5305.65911787666	0
0	16165	5309.547718564714	1
0	16166	5310.331712699029	0
0	16178	5313.305108748872	1
0	16180	5315.752118893847	2
0	16181	5317.471554386732	1
0	16187	5318.207347918883	0
0	16206	5325.395012385027	1
0	16207	5326.758044818453	0
0	16214	5327.267628819773	1
0	16218	5328.364122409967	2
0	16221	5328.613855008121	1
0	16228	5329.685428033772	0
0	16244	5331.396903851436	1
0	16247	5334.231401941864	2
0	16248	5337.54058429799	1
0	16255	5338.871041903996	2
0	16262	5344.246398845005	1
0	16271	5346.709434089061	2
0	16273	5348.933189368857	1
0	16285	5353.867168671483	0
0	16291	5353.924356451347	1
0	16292	5354.435196939662	0
0	16299	5355.670747287739	1
0	16300	5355.993625412829	0
0	16306	5357.037543936312	1
0	16309	5362.247040999741	0
0	16315	5363.213545923036	1
0	16318	5366.803115075193	2
0	16320	5367.095652914888	3
0	16323	5372.647532592766	2
0	16330	5374.280147971368	3
0	16332	5375.440432795559	4
0	16337	5377.730085508235	3
0	16344	5378.334837124316	4
0	16345	5378.571866453083	3
0	16350	5381.381169567082	2
0	16357	5381.615649922455	3
0	16359	5382.042501958491	4
0	16362	5383.134926539031	5
0	16366	5385.106829329849	6
0	16370	5386.744150047627	7
0	16371	5387.870080715762	6
0	16379	5391.773312404728	5
0	16385	5393.360459767371	4
0	16390	5393.686368289644	3
0	16397	5394.139850642309	4
0	16399	5395.70676198664	5
0	16403	5397.477552560192	4
0	16408	5399.464214539017	3
0	16413	5401.250483363395	2
0	16418	5401.762234689235	1
0	16423	5401.80223790637	0
0	16445	5408.690856303542	1
0	16446	5408.735267951646	0
0	16455	5410.250136174672	1
0	16458	5412.027445759727	2
0	16459	5412.817627252435	1
0	16466	5415.258257937562	2
0	16467	5415.377770249469	1
0	16473	5415.975287987942	2
0	16474	5417.163328323711	1
0	16481	5418.335039012674	2
0	16483	5420.19141542968	3
0	16489	5421.761571256239	4
0	16490	5421.848387208291	3
0	16497	5423.615933132314	4
0	16498	5426.661098976167	3
0	16505	5427.487301395292	2
0	16510	5427.579775514646	1
0	16516	5428.77481536075	0
0	16536	5432.686552752962	1
0	16538	5434.469860515744	2
0	16540	5434.565655508707	3
0	16541	5436.808005643966	2
0	16549	5440.146223461698	1
0	16554	5441.447517529807	0
0	16560	5442.384860749622	1
0	16561	5442.77749060399	0
0	16567	5443.726791628054	1
0	16568	5445.340094461767	0
0	16581	5446.686854567858	1
0	16586	5448.108492464116	0
0	16592	5449.27483567459	1
0	16594	5450.095572473172	2
0	16595	5450.807541667958	1
0	16600	5452.228817444825	0
0	16606	5453.98490031003	1
0	16610	5455.579937725101	2
0	16612	5457.601060656649	1
0	16619	5460.031017528594	2
0	16620	5464.307052086002	1
0	16626	5464.374036342482	2
0	16627	5464.569858752244	1
0	16634	5465.101398833288	0
0	16652	5467.508895394225	1
0	16661	5471.514628771727	0
0	16667	5471.540089493251	1
0	16670	5472.807451692358	2
0	16672	5473.3580727801	3
0	16675	5474.826701414427	2
0	16681	5477.388465258266	3
0	16682	5478.796345116835	2
0	16689	5480.064686700569	1
0	16694	5480.23397118316	0
0	16720	5489.337137786867	1
0	16722	5490.090722489414	2
0	16723	5491.33167141327	1
0	16730	5492.757616651358	0
0	16736	5494.295537417409	1
0	16737	5494.89922941921	0
0	16744	5495.71508963415	1
0	16747	5495.995838388692	0
0	16759	5497.0223313552	1
0	16763	5498.065457990863	2
0	16769	5501.722766322525	3
0	16772	5503.080439743973	4
0	16774	5503.113376856914	5
0	16776	5508.118782939546	6
0	16777	5508.665556682183	5
0	16783	5510.358956723726	4
0	16789	5510.815288738989	5
0	16793	5514.786841645929	4
0	16798	5517.388638379193	3
0	16803	5517.395052642038	2
0	16810	5519.178620570191	1
0	16815	5522.229279568904	0
0	16821	5522.944810910142	1
0	16822	5523.312685881927	0
0	16883	5540.726682986715	1
0	16885	5541.539995978	2
0	16889	5543.597121045184	1
0	16897	5545.818382175826	2
0	16899	5546.619990517479	3
0	16900	5546.724910196267	2
0	16905	5548.138745145051	1
0	16910	5548.266357414025	0
0	16934	5552.911013509501	1
0	16936	5552.966690045516	0
0	16942	5553.275117137577	1
0	16947	5553.354345248387	2
0	16949	5554.355159261107	3
0	16951	5554.579042845637	4
0	16953	5554.660249449637	5
0	16955	5554.852460238928	6
0	16956	5558.99842269773	5
0	16962	5560.38151736591	4
0	16968	5563.208043000513	3
0	16973	5563.297322051375	2
0	16981	5570.264073682409	3
0	16984	5571.426485547001	2
0	16990	5571.841560376284	3
0	16991	5572.866817319004	2
0	17000	5573.409902625093	1
0	17007	5573.971895038477	2
0	17010	5574.729680103219	3
0	17012	5577.396609423853	4
0	17013	5577.865234265093	3
0	17020	5579.250751972917	2
0	17025	5579.565923187875	1
0	17031	5580.923251610233	0
0	17060	5586.079899859274	1
0	17063	5588.368827449562	0
0	17090	5593.461713696141	1
0	17091	5593.764297654505	0
0	17097	5593.893061473838	1
0	17100	5594.781361312727	2
0	17105	5596.74583259818	1
0	17110	5596.931425497994	0
0	17118	5598.784874774858	1
0	17121	5601.499404728953	0
0	17127	5601.99629837667	1
0	17129	5603.271383995272	0
0	17145	5605.624504147948	1
0	17149	5607.42060247968	0
0	17155	5607.449376937267	1
0	17157	5607.489789696456	0
0	17166	5611.929202123188	1
0	17169	5612.823414550717	0
0	17181	5616.754232232504	1
0	17184	5619.622298907106	0
0	17194	5620.155117322971	1
0	17198	5624.662097245138	2
0	17200	5626.097217730331	3
0	17202	5626.405719647427	4
0	17206	5627.189803254053	5
0	17211	5629.774139875756	4
0	17218	5632.012675706029	5
0	17220	5632.672505166794	6
0	17223	5634.323896845764	7
0	17224	5634.653693461121	6
0	17230	5635.850014830396	5
0	17235	5636.700809671243	4
0	17241	5636.783036729379	5
0	17246	5644.421491419423	4
0	17253	5644.883804204606	5
0	17254	5645.01088849573	4
0	17260	5646.266628181466	5
0	17262	5646.610672902013	6
0	17264	5650.084371358799	5
0	17273	5652.759658642895	4
0	17279	5653.803151774614	3
0	17287	5655.420265956837	4
0	17288	5655.642583109417	3
0	17293	5655.881692160624	2
0	17299	5656.316055135734	3
0	17300	5656.326021661635	2
0	17305	5657.653657607022	1
0	17310	5658.030454516183	0
0	17316	5658.994495944902	1
0	17317	5660.399142515971	0
0	17323	5661.424839986922	1
0	17327	5664.782324470242	2
0	17329	5666.727414725471	1
0	17335	5668.889722735651	2
0	17337	5669.653670120511	3
0	17340	5671.018799595854	2
0	17346	5671.348361345708	1
0	17352	5672.468175350662	0
0	17358	5673.49540785697	1
0	17364	5681.641716132262	0
0	17376	5684.075745760454	1
0	17377	5685.351857406178	0
0	17394	5690.192868727978	1
0	17395	5693.335497968195	0
0	17408	5696.233279265822	1
0	17410	5697.236606693864	2
0	17413	5698.555666183383	3
0	17414	5698.841422942331	2
0	17419	5698.890859680779	1
0	17425	5699.72972628005	0
0	17435	5702.313092130729	1
0	17436	5704.05687379893	0
0	17448	5705.625032714531	1
0	17450	5706.446642392984	0
0	17468	5711.068202856764	1
0	17469	5711.10568463777	0
0	17482	5719.284075054374	1
0	17483	5719.322133876686	0
0	17492	5720.158709823889	1
0	17498	5725.764206333436	2
0	17499	5727.95695352538	1
0	17506	5732.243700762712	0
0	17513	5734.64867127293	1
0	17515	5735.952602529432	2
0	17517	5736.356633936222	3
0	17518	5737.670850903559	2
0	17525	5740.000429271992	3
0	17527	5742.531241301939	4
0	17533	5745.021790947641	5
0	17535	5746.417888303392	6
0	17537	5748.880657440906	7
0	17539	5750.242299657077	8
0	17541	5751.047911269962	9
0	17544	5753.115392092162	8
0	17549	5755.035642088643	7
0	17556	5756.283017396583	6
0	17563	5757.12297669447	7
0	17566	5757.795052934048	6
0	17572	5758.247780557702	5
0	17582	5764.449602685078	4
0	17588	5764.55739774913	5
0	17593	5765.957469090772	4
0	17605	5768.287205844629	3
0	17610	5768.593895803416	2
0	17616	5769.836170687327	1
0	17625	5773.05327691909	0
0	17642	5774.595231296537	1
0	17647	5779.53384831838	2
0	17654	5784.812166681507	1
0	17661	5786.564668462252	2
0	17663	5787.036753582106	3
0	17666	5788.687573036224	2
0	17675	5789.813838970825	3
0	17677	5792.175802163532	4
0	17678	5792.66668392593	3
0	17683	5793.69146763469	2
0	17688	5794.637268204969	1
0	17693	5794.831929209724	0
0	17699	5797.971811752615	1
0	17701	5799.818422865718	2
0	17703	5800.122665490599	3
0	17704	5802.06933754941	2
0	17710	5802.586416495076	3
0	17712	5802.768405253887	4
0	17715	5805.559448625484	5
0	17716	5808.811010781295	4
0	17724	5809.836950890462	3
[...]
4	81462	26518.680835608085	5493.2496515831
4	81467	26520.162439982405	5485.6799227283
4	81479	26524.027907436994	5488.8216420824
4	81502	26530.687455954362	5492.6470103842
4	81708	26607.904336806255	5569.2768723684
4	81720	26610.657215312234	5559.7021056815
4	81734	26615.304543688196	5555.8990905831
4	81739	26616.45734238875	5554.7495164423
4	81746	26618.204940545109	5551.0356480631
4	81751	26620.150335944929	5548.8377782722
4	81763	26622.104709946455	5550.3077993708
4	81793	26626.559304097167	5539.1309842328
4	81801	26628.61096086792	5536.2420499838
4	81907	26665.094295798888	5569.6323880348
4	81915	26666.2950835536	5563.4323193102
4	81922	26668.818282079089	5546.9914962595
4	81929	26672.217117266691	5539.3501486498
4	81938	26674.048892599313	5540.8387887321
4	81955	26676.979544096619	5542.9735655546
4	81960	26677.892446668925	5516.6288238305
4	81967	26680.467341947576	5508.5863775699
4	81982	26691.124650133901	5517.1280617079
4	82088	26731.042199522737	5556.0855319404
4	82193	26753.524501572013	5576.5908302502
4	82198	26754.877129799464	5569.1397692445
4	82203	26755.324858367004	5554.2973278347
4	82208	26755.412823480865	5547.5836898221
4	82213	26755.85719274689	5545.6788651424
4	82219	26759.056992673677	5535.0801090622
4	82224	26759.263439577458	5528.9554453734
4	82237	26762.278638712036	5517.5251549122
4	82255	26771.198695725206	5510.7413984217
4	82264	26773.924402160934	5512.4876356009
4	82291	26781.926067288471	5514.9410174081
4	82297	26783.975267139827	5509.9758493697
4	82305	26786.266416105946	5503.8521430937
4	82320	26795.443387474792	5492.510901219
4	82472	26829.905387390703	5520.16655853
4	82482	26835.888002335971	5523.742325195
4	82503	26840.126279337085	5514.4187756284
4	82527	26854.491705528223	5527.8073257681
4	82580	26867.745533166861	5537.5915797961
4	82613	26875.272997822558	5544.2943255756
4	82624	26876.459135858389	5544.9202910551
4	82630	26876.626897012657	5544.4945293133
4	82639	26879.146229344028	5525.4735856874
4	82650	26880.448839981329	5522.7523368857
4	82657	26885.283530872884	5527.0813936362
4	82662	26886.188346332844	5524.6162633206
4	82673	26890.989941427191	5509.7426186911
4	82686	26896.577019357198	5509.3242639406
4	82691	26896.874105901961	5508.1589042255
4	82698	26902.212015234121	5510.8495627451
4	82785	26927.157076910842	5533.6549657449
4	82791	26928.639945081574	5534.4411981229
4	82796	26928.923588209631	5529.5297089862
4	82801	26930.427946585946	5529.9191457163
4	82812	26934.08196044892	5532.5447887472
4	82951	26978.296450363135	5575.3243547264
4	83007	26988.778452073229	5573.5670867269
4	83012	26988.801248255791	5562.868915323
4	83018	26991.627745119901	5548.1956051771
4	83027	26996.563080318183	5533.995188902
4	83057	27009.191866208197	5542.3314232147
4	83062	27010.581698009336	5541.039128302
4	83067	27016.218938274709	5513.8919998232
4	83076	27019.267066753014	5509.6606232962
4	83087	27022.229775823184	5510.4997619191
4	83092	27024.026101602956	5509.610195005
4	83097	27024.645240919042	5509.8100268138
4	83104	27027.243066685405	5510.4528811313
4	83119	27030.932195520391	5508.2080979997
4	83126	27033.253360443419	5510.3686184913
4	83143	27043.374968744066	5518.3938245502
4	83549	27162.29035277724	5633.1415965259
4	83564	27168.922471036369	5639.5235707769
4	83569	27169.553371237079	5629.414234195
4	83574	27169.638735957447	5624.6262405101
4	83579	27170.890908395576	5625.1760016609
4	83591	27173.645183258773	5627.4777577857
4	83614	27179.339699096775	5632.2420557566
4	83748	27222.218818577156	5663.2476106052
4	83801	27232.496137902005	5672.1703591498
4	83815	27243.349684879965	5678.2532999632
4	83852	27252.246073528814	5678.1997132346
4	83862	27252.771368049888	5676.426595421
4	83871	27257.456283028065	5657.851725284
4	83877	27258.469605502137	5657.0373703404
4	83882	27258.996401353893	5652.5172059146
4	83887	27259.880117228978	5652.3451805699
4	83892	27260.058174264856	5646.9284258006
4	83907	27269.110601025279	5652.8770812397
4	83942	27278.563105350379	5654.7778520557
4	83984	27298.781342258371	5668.2424665282
4	84255	27381.31852637029	5748.3830366521
4	84260	27381.570975951844	5740.2074366902
4	84277	27387.915545098238	5740.799701524
4	84542	27471.18918815699	5806.0343031239
4	84584	27484.392609741475	5812.2224159051
4	84670	27506.605923044758	5833.8141844164
4	84683	27510.197551450849	5834.6803646447
4	84695	27511.867022907092	5832.7664068991
4	84705	27515.831888742187	5832.2895392712
4	84742	27524.525570429079	5825.1161545484
4	84749	27525.020559681107	5821.2739042445
4	84761	27533.799543627684	5823.4668872707
4	84787	27549.086865945592	5830.8742584212
4	84792	27551.932530709641	5833.6734028373
4	84809	27553.097777644078	5824.5934038096
4	84902	27581.879837572941	5848.4293366266
4	84912	27583.852995632589	5849.8036266228
4	84923	27585.722030014277	5828.8215064553
4	84989	27602.353609357303	5844.3595718648
4	84997	27606.580631251305	5848.0154923589
4	85008	27610.268219419988	5840.9870299524
4	85066	27621.077216899887	5849.8941506474
4	85071	27621.15719394316	5847.5115812131
4	85076	27622.147898175781	5844.5302281107
4	85087	27626.925349086538	5836.4055225952
4	85180	27657.725098298877	5864.2911043362
4	85201	27661.89927208688	5861.4785473117
4	85206	27661.960523170675	5851.8088430018
4	85212	27662.788762658683	5851.88304561
4	85228	27673.823156382678	5861.1797148843
4	85243	27681.486731308599	5865.0020246088
4	85272	27685.149664891043	5866.0526841547
4	85281	27692.022085022766	5872.6654245175
4	85286	27692.896105709627	5864.7777239827
4	85297	27696.729997177301	5868.5057180238
4	85321	27702.734734787298	5869.4855022822
4	85327	27703.372637758091	5870.006645249
4	85340	27712.86833344553	5878.4881917985
4	85367	27721.452512855491	5885.0686218028
4	85402	27730.601811900899	5893.0713980716
4	85474	27744.81977784501	5903.7252846158
4	85479	27745.610274808205	5902.2825039933
4	85485	27746.010397004892	5899.526735875
4	85501	27754.419535883225	5904.6900588644
4	85517	27756.461974796214	5900.1992550003
4	85523	27759.565205671281	5902.3872221071
4	85529	27762.016892266901	5904.7131238484
4	85534	27763.398090044133	5871.6317356526
4	85543	27766.691633866416	5874.879859178
4	85560	27773.997874419637	5875.6451485574
4	85585	27782.084919110368	5880.5087110887
4	85593	27784.361656067337	5877.8465633323
4	85600	27784.935651068547	5871.2403995366
4	85613	27790.286474984658	5844.1203904108
4	85665	27802.832937186205	5849.6855026409
4	85677	27807.587778215301	5850.7869556303
4	85687	27810.598301172497	5847.7504282221
4	85692	27811.954854568599	5847.578431429
4	85704	27820.421139322073	5852.6522583079
4	85723	27822.287467655967	5846.8196777843
4	85733	27825.886403614206	5849.9293291133
4	85762	27833.760785134379	5846.8317387148
4	85817	27845.41100086921	5852.7976287246
4	85845	27853.097424571341	5856.9647525826
4	85943	27887.243519766648	5878.7810265287
4	85954	27891.130738520886	5879.6909919191
4	85969	27894.382959515264	5880.2921700487
4	85980	27896.09879964384	5881.0098229997
4	85985	27898.955456483228	5880.4787021918
4	86001	27910.339887597354	5885.1952212892
4	86161	27950.831451074259	5922.0215409007
4	86170	27952.325219105953	5911.8405124123
4	86183	27954.672354090583	5904.4996632203
4	86188	27955.249042187422	5903.5232345017
4	86206	27964.047749601414	5906.1348009018
4	86380	28038.266931438493	5978.7944810574
4	86393	28042.168929391071	5965.9312613389
4	86398	28046.178240783666	5967.0747642357
4	86406	28049.726840121035	5966.0889518027
4	86413	28054.012691598577	5957.3769702549
4	86418	28056.463561045698	5957.0845444702
4	86423	28057.669257463204	5954.8166576578
4	86428	28058.971567660125	5951.086682707
4	86435	28065.983518182651	5951.260880031
4	86512	28094.835636996118	5969.499411756
4	86517	28096.547673856608	5962.5600301888
4	86524	28100.096543836976	5960.0596455529
4	86535	28106.006258367374	5964.8904884764
4	86587	28124.28315760183	5975.1433314777
4	86626	28137.229793532485	5986.2761194997
4	86631	28137.781532929831	5976.19594279
4	86638	28145.782558408871	5980.2081720727
4	86647	28149.611414085271	5971.1399876466
4	86679	28161.884401605348	5979.8233245479
4	86887	28229.5310827591	6046.7786134042
4	86892	28229.543743929195	6044.5512052017
4	86904	28239.989281700199	6025.2443469043
4	86909	28240.152504459592	6019.3019070632
4	86914	28242.857429689613	6016.9291879092
4	86919	28244.655504951031	6016.6954442033
4	86930	28246.823948720068	6018.5797795954
4	87036	28272.076680719373	6041.6293366809
4	87046	28278.13244012803	6046.8718201399
4	87065	28280.955698587207	6049.2661682188
4	87070	28281.223497777059	6034.4475879538
4	87075	28283.2762750289	6029.0578182455
4	87082	28285.643699312848	6031.2461882363
4	87133	28302.453718001832	6040.2565952792
4	87144	28307.639567652388	6042.3478200517
4	87164	28311.140436031404	6040.3991707669
4	87169	28311.502421720634	6039.0934252802
4	87184	28318.308230552402	6044.0686854822
4	87204	28322.739429597753	6039.6809872201
4	87230	28335.025167865086	6030.2601762472
4	87261	28343.594813454879	6035.4102680317
4	87273	28346.976812331002	6037.8373962852
4	87280	28349.897993839559	6012.5490098837
4	87298	28355.169658769644	6010.5369670706
4	87425	28409.87352082219	6058.1489935825
4	87447	28421.24021725666	6062.3449439689
4	87454	28421.613210751604	6056.9090616374
4	87467	28425.050538031184	6055.9717093664
4	87474	28428.657681777222	6056.0189700172
4	87483	28431.419801570345	6055.8668116749
4	87490	28437.121348930817	6060.4278945076
4	87495	28437.840840910078	6059.913050273
4	87500	28438.921431895062	6058.0192895834
4	87516	28446.651025664667	6065.6537593646
4	87538	28452.675618741565	6068.7891347335
4	87543	28453.145130691437	6060.8155187794
4	87553	28457.18739100313	6052.8018778437
4	87588	28471.782135905931	6062.2343492522
4	87593	28478.228094046567	6051.3775424019
4	87600	28479.176923515119	6027.1348336516
4	87611	28480.687782230925	6028.537099795
4	87621	28487.203271957672	6030.0121849704
4	87635	28488.898002846929	6030.9820089864
4	87647	28493.823031177512	6029.8040668081
4	87652	28494.427686377309	6019.5877131389
4	87661	28499.643592233732	5999.9290003001
4	87672	28502.783381855362	6002.7718253537
4	87697	28517.752703014897	6011.0855869206
4	87704	28520.26185706043	6010.8813553882
4	87716	28523.928011502975	5996.1557688958
4	87724	28529.892767819277	5996.8496425125
4	87737	28534.282363537038	5996.2145478017
4	87747	28537.266587093697	5985.20106486
4	87827	28555.225264216632	6001.8547529971
4	87832	28556.198443812995	5995.9441641198
4	87841	28558.880404595555	5996.921480149
4	87849	28560.100359247074	5997.0846234742
4	87859	28560.630636256312	5997.2511358049
4	87864	28561.599964308801	5990.1721029666
4	87877	28565.157448709995	5990.4118483612
4	88016	28616.146918018075	6034.4588943925
4	88022	28616.381040435663	6029.1439805126
4	88034	28620.082658745211	6032.648556712
4	88066	28630.811490248749	6040.3226568748
4	88193	28664.074921348272	6069.6920964134
4	88203	28668.781499254392	6063.1556222554
4	88212	28670.509264915081	6058.8494300666
4	88225	28674.004857000126	6061.3209157528
4	88238	28675.980436833043	6050.9357679988
4	88252	28686.326992002547	6047.5809636045
4	88265	28691.921399622365	6047.6960567649
4	88270	28692.37976723552	6038.7752292976
4	88275	28695.489375069717	6022.2125543818
4	88282	28699.567420397364	6020.4942011666
4	88300	28706.699995561846	6015.4361924589
4	88307	28709.053334107589	6004.6059048764
4	88312	28712.057536827313	6001.9363040708
4	88320	28713.066141986611	5990.6982838735
4	88330	28714.15130306995	5989.3144199431
4	88335	28715.865151591542	5985.0504447316
4	88346	28717.128534642865	5984.7288446921
4	88368	28726.869539125469	5990.2744827618
4	88375	28733.712117160965	5993.4137922532
4	88386	28736.63869743928	5995.8677747991
4	88410	28743.190520841828	5994.7464143203
4	88418	28745.460722518903	5995.153725632
4	88424	28746.191198435652	5987.23350884
4	88431	28747.159650464462	5986.0749147003
4	88444	28750.49848488036	5987.0768621189
4	88462	28754.237519872868	5987.4316722607
4	88476	28756.425291429237	5984.869868419
4	88517	28769.825553994211	5993.4763247153
4	88527	28774.23838586357	5997.3534065762
4	88532	28774.600327257616	5995.8491500532
4	88541	28776.140896376506	5997.2425529537
4	88551	28777.222062328145	5980.3023819006
4	88556	28780.844643039293	5980.1583645124
4	88563	28782.591019561428	5973.2794332164
4	88574	28787.616518209773	5976.9062106489
4	88583	28790.493927471709	5975.1499014126
4	88651	28817.701840607243	5999.7221837074
4	88880	28881.527913636636	6062.8809203235
4	88894	28887.299197932566	6038.2575503021
4	88903	28889.554455099553	6027.7467982294
4	88920	28893.426807666106	6018.9019487527
4	88932	28898.420623889046	6022.4809410944
4	88945	28903.643139573381	6025.9563049547
4	88976	28910.091547742146	6031.0725688322
4	88988	28912.702449399665	6029.7755911139
4	88998	28914.47293428729	6014.3747668694
4	89004	28914.759143920978	6001.6909367598
4	89021	28921.951444744772	6006.1856198199
4	89060	28929.709768743659	6002.7816418225
4	89077	28938.006185186349	6005.169796579
4	89106	28943.276179178045	5997.5569819411
4	89113	28945.398489040591	5985.9126395945
4	89129	28949.777650301043	5987.32066893
4	89232	28976.052495954731	6007.6663058007
4	89250	28978.958208621597	5998.6242260237
4	89255	28979.536301018269	5985.4660683666
4	89268	28984.549548711302	5986.9679743756
4	89290	28988.520359835503	5985.7852418765
4	89299	28992.556946728811	5988.2880696546
4	89308	28997.425061291873	5992.3505674017
4	89320	29001.823742089988	5975.0004513855
4	89386	29021.650371206571	5988.418014959
4	89397	29025.139561329863	5975.2361703614
4	89413	29033.302666201068	5982.209744763
4	89480	29052.313576886047	5988.2188298977
4	89497	29056.530455317553	5988.3880564657
4	89603	29085.845839654783	6011.4775651987
4	89610	29086.646553526401	6011.3810354491
4	89620	29089.480869603647	6009.1353309127
4	89625	29090.79072215866	5998.9859978684
4	89630	29091.866409208475	5993.661234379
4	89640	29092.329913697963	5969.79923002
4	89739	29122.118616497828	5989.3509193175
4	89749	29125.33288415592	5992.098409108
4	89760	29127.133634631958	5983.2175916123
4	89765	29128.87471719722	5984.5003421382
4	89773	29130.951102794417	5968.3558136564
4	89791	29138.073447708947	5970.4035052912
4	89828	29146.632340218968	5976.3324099621
4	89845	29154.845071907294	5980.7918118046
4	89883	29164.420422235479	5982.7212993146
4	89921	29175.483334122012	5981.7654372993
4	90013	29196.621623286573	5985.8573331933
4	90026	29201.119437860008	5989.7822065818
4	90031	29201.508829903715	5987.1784882211
4	90036	29204.377560458291	5989.0919286891
4	90048	29208.742441542753	5988.0607770367
4	90109	29222.137832439864	5998.7679002481
4	90116	29222.937325134623	5992.1071131848
4	90127	29224.279651340524	5989.4259925122
4	90139	29228.250253767756	5979.2948974778
4	90156	29231.427003336078	5981.9116406307
4	90178	29237.221578644111	5970.9436513143
4	90191	29239.9302324479	5957.5558059377
4	90200	29243.328537870125	5960.1352985933
4	90221	29250.461961498894	5950.3709343238
4	90241	29257.254950684865	5952.8346541692
4	90248	29259.269695470727	5950.6213858454
4	90257	29263.216878971884	5951.2184671763
4	90289	29270.845017142489	5955.1311152704
4	90350	29284.920115086298	5957.2176983301
4	90355	29285.607827432462	5956.6319772171
4	90360	29288.272089204813	5957.2213199279
4	90367	29290.948138790769	5953.0516112175
4	90376	29293.234434455563	5945.2549962971
4	90383	29293.75979300589	5943.9962918911
4	90390	29297.21049028966	5945.7776446771
4	90420	29303.490600948398	5950.5134367263
4	90428	29307.347889175197	5951.7739169877
4	90440	29310.279605548409	5951.3235475243
4	90445	29312.610416688137	5949.9644823424
4	90452	29316.260126822081	5947.4256444305
4	90465	29325.409541012555	5955.6268250398
4	90513	29338.873846639307	5962.2705549071
4	90520	29342.59701402081	5963.1426695419
4	90530	29344.31490239948	5963.1239880166
4	90555	29350.786998213542	5968.9063862017
4	90710	29412.475859511488	6029.2885975412
4	90725	29415.106103759489	6023.5207026141
4	90732	29415.224526976448	6022.1216709982
4	90743	29419.748417013742	6026.6150491045
4	90748	29421.475669522337	6027.9753148308
4	90753	29423.350854213367	6026.1484296147
4	90762	29429.19290494799	6029.0525143215
4	90785	29433.725334419879	6005.5710014447
4	90812	29446.043959328847	6017.3124708478
4	90817	29447.514402802484	6015.7377866582
4	90830	29454.353473829573	5990.6530846993
4	90868	29463.647964950077	5995.0570385604
4	90879	29468.749017863649	5993.0813365328
4	90895	29471.542153989542	5993.1907983627
4	90900	29471.911992471759	5990.4791484787
4	90905	29474.735341692129	5986.6004544148
4	90916	29480.325056528338	5988.551251221
4	90930	29484.224252298289	5984.3639055812
4	90935	29485.106445605695	5979.704887241
4	90942	29486.925770176547	5978.8093675294
4	90949	29490.447942894475	5979.0082014777
4	90956	29497.280546366224	5979.844918201
4	90963	29498.752831253401	5972.5005420058
4	90976	29501.990619058802	5972.2254994953
4	90990	29506.131553707842	5963.3012719783
4	91000	29508.810950911806	5965.055592405
4	91115	29545.886306464565	5998.9836807425
4	91134	29552.645008096191	5986.6266654656
4	91145	29557.593205701057	5989.2743423843
4	91169	29562.933813970071	5977.4636607637
4	91191	29568.575774156333	5980.2964252065
4	91208	29579.034028583971	5989.2812336258
4	91243	29584.232253660515	5988.0426719671
4	91250	29586.94314088023	5984.4993904799
4	91280	29592.551381035065	5985.1526682469
4	91287	29593.097251764164	5983.2951605938
4	91305	29596.355601785518	5978.1964006719
4	91316	29598.392757279326	5978.1995488545
4	91328	29602.85477638733	5981.9078004184
4	91353	29609.764071702726	5988.5637800396
4	91358	29611.950281618091	5990.3287732557
4	91369	29620.318780965296	5991.0044838905
4	91392	29626.939152595096	5996.0355359353
4	91410	29632.212631810835	5997.908103187
4	91425	29641.262461638805	6001.428639076
4	91460	29648.275963924421	6004.0969221764
4	91473	29651.503842006535	6000.3701058886
4	91490	29657.33164969821	5984.9732485802
4	91506	29659.657033480466	5980.0334169102
4	91513	29660.736171395922	5978.4201821305
4	91533	29663.434201845991	5980.543097556
4	91546	29668.427900432421	5984.7480959319
4	91589	29678.77755721403	5994.0069095561
4	91598	29679.177326243912	5986.9413554379
4	91613	29685.77745339819	5978.9840099069
4	91762	29727.710908631916	6004.0757893919
4	91858	29757.992825925996	6014.6932165681
4	91886	29765.917359945459	6018.6286509902
4	91973	29793.395109488524	6038.2067959532
4	91978	29794.950302897066	6035.6391197008
4	91985	29797.444460547688	6030.8553451091
4	92002	29800.380209051046	6031.4389824236
4	92035	29805.983613858315	6035.4162389067
4	92041	29807.10337415804	6032.8333941874
4	92046	29810.045360134935	6033.0311297319
4	92055	29814.765034029841	6034.8075548596
4	92062	29816.459034337989	6014.5729569892
4	92074	29820.860106560331	6013.6867395791
4	92083	29824.106702317735	6013.153841061
4	92090	29824.818094457543	6007.6647047569
4	92110	29833.938837945167	6016.674994203
4	92169	29852.952933882075	6034.1381399634
4	92176	29856.764235250805	6031.2675072539
4	92181	29858.072589872715	6029.9813848589
4	92186	29858.878427020891	6030.6486757403
4	92191	29859.202630612985	6029.4400023958
4	92210	29865.629315593196	6034.0156548033
4	92282	29879.824010332465	6045.5624430251
4	92294	29884.334068753638	6040.673093554
4	92313	29888.845022480428	6026.9258181915
4	92330	29894.891547852652	6032.7119345683
4	92335	29897.867626440433	6022.7796408589
4	92342	29901.130754638566	6023.6798230725
4	92347	29904.189434380474	6026.4020329875
4	92352	29904.896319518858	6025.1275313336
4	92357	29907.7702682573	6017.9625545726
4	92363	29910.961533602721	6019.0713652747
4	92370	29912.223117665981	5996.9633604559
4	92375	29917.442340133276	6001.8936300635
4	92380	29919.370293719227	6003.3903401257
4	92385	29924.338788180208	6007.4189293201
4	92392	29926.091641446336	6003.6557509535
4	92397	29929.136116346483	6005.2338937896
4	92412	29935.238668918271	6005.2925435765
4	92487	29957.836610521421	6027.6976734545
4	92497	29961.125373252236	6025.3225690476
4	92571	29983.367262056285	6046.0277219035
4	92584	29989.084723239856	6048.3848635005

