version 2
run Third-n4-0-20191016-17:04:38-860
attr configname Third-n4
attr datetime 20191016-17:04:38
attr experiment Third-n4
attr inifile omnetpp.ini
attr iterationvars ""
attr iterationvarsf ""
attr measurement ""
attr network org.omnetpp.queueing.Pizza
attr processid 860
attr repetition 0
attr replication ""
attr resultdir results
attr runnumber 0
attr seedset 0
param **.PS.maxInventoriedPS 4
param **.U1.interArrivalTime exponential(4s)
param **.U2.interArrivalTime exponential(6s)
param **.PS.serviceTimeForInventoryU1 exponential(1.4s)
param **.PS.serviceTimeForInventoryU2 exponential(1.4s)
param **.PS.serviceTimeDirectU1 exponential(1.8s)
param **.PS.serviceTimeDirectU2 exponential(1.8s)
param **.PS.probabilityProducing 0.8
param **.CS.serviceTimeU1 exponential(2.3s)
param **.CS.serviceTimeU2 exponential(2.3s)

vector 0 Pizza.EntryQueueU1 queueLength:vector ETV
attr interpolationmode sample-hold
attr title "queue length, vector"
vector 1 Pizza.CS queueLength:vector ETV
attr interpolationmode sample-hold
attr title "queue length, vector"
vector 2 Pizza.EntryQueueU2 queueLength:vector ETV
attr interpolationmode sample-hold
attr title "queue length, vector"
vector 3 Pizza.sink lifeTime:vector ETV
attr interpolationmode none
attr title "lifetime of arrived jobs, vector"
attr unit s
vector 4 Pizza.sink lifeTimeU1:vector ETV
attr interpolationmode none
attr title "lifetime of arrived jobs, vector"
attr unit s
vector 5 Pizza.sink lifeTimeU2:vector ETV
attr interpolationmode none
attr title "lifetime of arrived jobs, vector"
attr unit s
0	0	0	0
0	10	8.207221050453	1
0	13	10.852402924663	0
0	26	12.359858253108	1
0	32	15.370554706359	2
0	33	15.430707809346	1
0	40	15.665296128219	2
0	46	17.833316578455	1
0	51	19.309247675615	0
0	65	22.815246781974	1
0	69	26.413562111084	0
0	76	26.900974279371	1
0	78	27.645363267608	0
0	84	27.725787407493	1
0	85	28.206674796302	0
0	103	31.087126229942	1
0	107	35.667682048742	2
0	108	35.900760964205	1
0	113	38.651808902956	0
0	120	39.465660382729	1
0	123	43.908050165478	2
0	125	44.852876989809	3
0	127	46.626493104291	4
0	128	46.702300377202	3
0	134	47.178607858005	4
0	138	48.855241964676	3
0	144	48.987016098903	4
0	147	51.168745276559	3
0	152	51.573346431038	2
0	160	53.578752894377	1
0	171	55.82554026474	0
0	237	70.405170413389	1
0	239	71.350612944594	0
0	256	79.719494165534	1
0	260	80.950078096627	0
0	288	87.084624051482	1
0	290	88.446011004423	2
0	293	89.219800561966	1
0	298	91.194104387973	0
0	317	101.546583715282	1
0	318	102.760943670483	0
0	331	106.355537984268	1
0	333	107.505179888548	2
0	335	110.987323193854	3
0	336	111.009474966137	2
0	342	112.490278563481	3
0	343	113.72205571352	2
0	349	115.322394473591	1
0	355	116.041724205228	2
0	356	116.477709309591	1
0	362	117.959150138733	0
0	368	118.247308165765	1
0	370	119.605967096094	2
0	372	120.441586595641	1
0	378	120.976365594886	2
0	381	121.558661508677	3
0	384	121.946352526984	4
0	388	125.288716087027	3
0	394	125.521268840206	4
0	399	129.744667274845	5
0	401	130.744993254756	6
0	404	133.275547689377	5
0	413	134.592209257662	4
0	418	134.835118338008	3
0	423	135.834113346679	2
0	432	139.819529225526	3
0	436	142.659200934422	4
0	438	148.69849475686	5
0	439	151.394511542534	4
0	444	152.613518162248	3
0	451	153.816119231451	2
0	457	155.069290626184	1
0	462	156.115587869205	0
0	470	156.234210303204	1
0	474	160.569715515435	0
0	509	167.772657311614	1
0	510	172.624006046217	0
0	516	172.647844524988	1
0	519	173.367673891195	2
0	520	176.144917866632	1
0	526	177.253602523575	2
0	529	178.340274804944	3
0	530	178.907150951679	2
0	536	179.584146024823	3
0	538	180.671434157195	2
0	549	187.572833894783	3
0	552	188.348683125059	2
0	558	188.527845386174	3
0	560	188.916459443296	2
0	568	190.467221953459	1
0	573	190.672276820448	0
0	597	200.084147753769	1
0	598	200.855316660173	0
0	608	204.634301775932	1
0	614	213.713661839068	2
0	618	214.69162592724	3
0	619	215.807643825116	2
0	624	216.147114700766	1
0	636	219.043243661697	2
0	638	219.413996648612	1
0	644	220.14901835482	0
0	665	223.009260833286	1
0	666	223.179845665153	0
0	690	228.259292805149	1
0	691	228.337847375393	0
0	697	229.560156877054	1
0	703	232.128422573663	0
0	730	237.536313682162	1
0	737	242.963771219221	0
0	762	248.818857475822	1
0	768	249.079308934969	2
0	769	250.19030815947	1
0	777	254.307284249777	0
0	794	259.689542997051	1
0	797	263.419990418126	2
0	798	264.359931380067	1
0	804	264.405653706977	2
0	805	264.966158739588	1
0	813	271.490431184352	0
0	832	272.849208804508	1
0	834	274.555352052654	2
0	842	282.486347671068	3
0	849	288.08905045891	4
0	850	289.067293020085	3
0	856	289.345042051163	4
0	857	289.405910605905	3
0	862	289.890137168774	2
0	867	290.185871714509	1
0	872	290.422698951063	0
0	878	291.581072731127	1
0	881	293.265045923323	2
0	893	299.661205140479	1
0	900	302.746596245779	2
0	902	302.802782610749	3
0	904	302.848755611583	4
0	906	305.898450348443	5
0	907	306.687382632195	4
0	913	311.619469200576	3
0	920	311.787266980418	4
0	921	314.221640366066	3
0	929	315.476653110031	2
0	934	316.572553850006	1
0	941	317.297421916052	0
0	952	318.439130103115	1
0	954	319.53394285438	0
0	962	320.875387924409	1
0	963	322.26978423245	0
0	973	322.787059874454	1
0	976	323.907402783387	0
0	990	327.563113356835	1
0	992	327.852789797293	2
0	993	328.439597051362	1
0	1002	331.395832381413	2
0	1006	332.273705024988	3
0	1007	333.559590227078	2
0	1015	334.737382160125	3
0	1016	336.448145241061	2
0	1022	337.273110666091	3
0	1023	337.290983212276	2
0	1031	339.954038172395	3
0	1033	340.098049491393	4
0	1038	344.662043520383	3
0	1045	346.221443167166	4
0	1046	346.429026206678	3
0	1052	348.211163679537	2
0	1057	348.576891318176	1
0	1063	349.053417237354	0
0	1078	350.796624683641	1
0	1082	354.192121311623	0
0	1098	357.241952680123	1
0	1099	358.236378514694	0
0	1121	362.50004107246	1
0	1122	362.772765107007	0
0	1130	364.944271317602	1
0	1131	365.00839015645	0
0	1155	372.896029136978	1
0	1156	376.230068401086	0
0	1163	378.318903192378	1
0	1165	380.075211134729	2
0	1167	382.422286361449	3
0	1168	383.575720708255	2
0	1175	384.186905604368	3
0	1176	385.321339689027	2
0	1186	391.414472692156	1
0	1193	391.653467485091	2
0	1195	391.883839152359	3
0	1198	393.46610155394	4
0	1202	394.52584130449	5
0	1205	396.097949322882	4
0	1210	396.134126307564	3
0	1218	398.338331457554	4
0	1220	398.470347397779	5
0	1221	398.547613289196	4
0	1228	399.470150664378	5
0	1230	401.358023015466	6
0	1232	401.406459995712	7
0	1233	401.938784406198	6
0	1239	404.107883476402	7
0	1240	404.155047607663	6
0	1247	405.230187181111	7
0	1252	406.714834064315	8
0	1257	413.295567772613	9
0	1258	414.827691598347	8
0	1264	415.69033406752	7
0	1269	415.858352878976	6
0	1276	418.356620494638	5
0	1283	420.031888912613	4
0	1290	421.892542211418	3
0	1296	423.255654272672	2
0	1301	424.293503509201	1
0	1306	424.401831832629	0
0	1322	431.486863180053	1
0	1324	432.893932721773	2
0	1326	433.41008673451	3
0	1329	435.508963514406	2
0	1341	442.443390540434	1
0	1347	448.160342034432	0
0	1380	452.728967726387	1
0	1381	453.962891313423	0
0	1387	454.134252852556	1
0	1389	455.868912274051	2
0	1391	456.954792139769	3
0	1393	458.166201729401	2
0	1398	458.683799465284	1
0	1409	462.318399038134	2
0	1411	462.962969353436	3
0	1412	463.328843822688	2
0	1419	466.159497180059	1
0	1428	468.335531184944	0
0	1458	476.726745543778	1
0	1459	476.947847458395	0
0	1468	478.815190761422	1
0	1472	481.246329817888	2
0	1474	483.301072270944	3
0	1476	483.404384448647	4
0	1478	484.546660130659	5
0	1479	485.502486573464	4
0	1484	486.357202809568	3
0	1491	491.537936410732	2
0	1497	492.45746553743	1
0	1502	492.57227142301	0
0	1509	493.305246988892	1
0	1510	493.493148945367	0
0	1516	493.7473104953	1
0	1518	495.136807576336	0
0	1525	499.137105790063	1
0	1528	500.05437447661	2
0	1532	501.795578095484	1
0	1540	503.600058498395	0
0	1556	504.130187200915	1
0	1561	505.922539074417	2
0	1563	508.005654533899	3
0	1565	508.672837566389	4
0	1567	508.771292142673	5
0	1568	509.546076108335	4
0	1578	510.988366036326	5
0	1579	511.785062958721	4
0	1586	512.067876862563	3
0	1596	514.801033931224	2
0	1603	516.910759064122	1
0	1612	522.574840883756	0
0	1620	524.865941391432	1
0	1623	524.984068636088	2
0	1624	526.439490403943	1
0	1632	527.781448800245	0
0	1655	535.063623411474	1
0	1657	538.815884357632	0
0	1663	538.921622458514	1
0	1667	542.068354920353	2
0	1669	543.97634592413	3
0	1670	547.881239332273	2
0	1675	548.177660218169	1
0	1680	550.803375922267	0
0	1695	554.198416790786	1
0	1698	557.384730688863	0
0	1726	566.356543151322	1
0	1727	566.701940987437	0
0	1745	570.28549588896	1
0	1746	570.924688197686	0
0	1772	579.817768981726	1
0	1774	582.362182799191	2
0	1778	586.550951821157	3
0	1780	586.571764352386	4
0	1783	589.055437962503	3
0	1788	589.969639846326	2
0	1793	590.483917680496	1
0	1798	592.633452638099	0
0	1823	602.126343243465	1
0	1825	603.809013933066	2
0	1826	607.622504846771	1
0	1834	608.03477790979	2
0	1837	610.059833778118	3
0	1838	610.098202903432	2
0	1846	611.465474741838	1
0	1851	612.178925825346	0
0	1905	638.993707589313	1
0	1907	641.035688240124	2
0	1908	643.923724571908	1
0	1914	644.291596262621	0
0	1929	647.109164833712	1
0	1932	649.332941389131	0
0	1946	650.970908032498	1
0	1950	653.515109916995	2
0	1954	654.007551736662	3
0	1955	655.24767927026	2
0	1962	656.515296551384	1
0	1968	656.802307852809	0
0	1974	656.847833119285	1
0	1979	657.419220967333	0
0	1987	658.889883423027	1
0	1991	660.927597463911	2
0	1992	661.888582246884	1
0	2000	664.146687529763	0
0	2006	664.740741188802	1
0	2007	665.047561971491	0
0	2015	667.820188932057	1
0	2017	669.140615708271	2
0	2018	669.16836694403	1
0	2027	670.689405577235	2
0	2028	671.064881907341	1
0	2034	671.154572244302	2
0	2035	671.26977960957	1
0	2040	671.338970039301	0
0	2059	676.013595078574	1
0	2061	676.69412302571	0
0	2098	682.378404131946	1
0	2099	682.512295173009	0
0	2120	690.137851170309	1
0	2124	692.407323648973	2
0	2125	693.201838618327	1
0	2131	694.127012459928	2
0	2132	694.462037225041	1
0	2137	694.864127825119	0
0	2149	699.688569768835	1
0	2150	700.063048854083	0
0	2173	705.385093831379	1
0	2181	708.271728822144	2
0	2182	708.397028137622	1
0	2189	708.771172253499	2
0	2190	709.007379040504	1
0	2195	709.016275033835	0
0	2206	712.293246006737	1
0	2210	715.250665274071	0
0	2234	720.838021711999	1
0	2236	720.843558962423	2
0	2239	721.237956963219	3
0	2240	721.60363328891	2
0	2246	726.105695591061	1
0	2252	727.458196357918	0
0	2266	736.605622177078	1
0	2269	737.581754199556	0
0	2300	745.633970743601	1
0	2303	747.264891336693	0
0	2318	748.700872272112	1
0	2322	749.381100627284	2
0	2324	750.831865172108	3
0	2326	751.966865582268	4
0	2328	752.28026478664	5
0	2330	752.429249155853	6
0	2332	754.64044648987	7
0	2336	756.730163463261	8
0	2337	756.938858637219	7
0	2347	758.99265514735	8
0	2348	759.025908353079	7
0	2357	765.192197059498	6
0	2367	765.286070410305	5
0	2372	766.375952041993	4
0	2377	768.460904979598	3
0	2384	769.778794563031	4
0	2389	773.445890049777	5
0	2390	775.559618399042	4
0	2395	776.342718239574	3
0	2400	776.953356837664	2
0	2407	777.502616524399	1
0	2413	777.859191260577	2
0	2416	780.482166851429	1
0	2423	780.853048200271	2
0	2427	781.115700940979	3
0	2428	781.756560384579	2
0	2433	781.969051677716	1
0	2439	782.049755765132	2
0	2444	786.463961852621	1
0	2449	786.746668165368	0
0	2455	787.062068141127	1
0	2459	791.120575158185	2
0	2460	791.17946850905	1
0	2465	791.371398949442	0
0	2488	793.731549640355	1
0	2489	794.700631556542	0
0	2495	796.294853926346	1
0	2499	799.917009455465	0
0	2506	801.581214351066	1
0	2512	804.974169621696	0
0	2533	809.813579061679	1
0	2536	810.907838510675	2
0	2541	812.237646197011	3
0	2543	812.686984919619	4
0	2544	815.812585545211	3
0	2550	816.354277068804	4
0	2552	816.994019484281	5
0	2553	817.838673064945	4
0	2560	818.164131775974	5
0	2564	822.594986389807	4
0	2570	823.885009169004	5
0	2572	824.344634574027	4
0	2577	824.869601807383	3
0	2582	826.174926750196	2
0	2588	826.989583562594	1
0	2595	827.42587654761	2
0	2598	829.980248589268	1
0	2604	830.369049855658	2
0	2608	832.05866365327	3
0	2610	832.633905245011	2
0	2619	837.952574759884	3
0	2623	839.526504347757	4
0	2627	842.274486891385	5
0	2629	843.030400958257	6
0	2630	846.356247354444	5
0	2636	846.91306394964	6
0	2640	847.742712442854	5
0	2646	848.601117818071	4
0	2652	851.349452524827	3
0	2657	851.49025721871	2
0	2662	851.988874277927	1
0	2668	854.97633380699	2
0	2669	855.098065075879	1
0	2673	855.488213586455	2
0	2675	857.116922308608	3
0	2678	860.355644425199	2
0	2684	861.423556904018	3
0	2686	861.657792297309	4
0	2689	863.851319638534	3
0	2695	864.40929138324	4
0	2699	868.595705178147	3
0	2704	869.464446700885	2
0	2710	869.638456923243	3
0	2711	871.927643307545	2
0	2717	872.920327194919	3
0	2720	873.13043155635	4
0	2721	873.453743182894	3
0	2727	873.570042657105	4
0	2730	877.487170422761	3
0	2735	878.049421275735	2
0	2741	878.83165262734	3
0	2743	879.007143339149	4
0	2744	880.42763466804	3
0	2748	880.6677289171	4
0	2752	882.641369953927	3
0	2759	885.867912953815	4
0	2763	887.471417808399	5
0	2766	888.83434964956	4
0	2771	889.427623676923	3
0	2780	893.010005789539	2
0	2785	894.156070069126	1
0	2791	894.196875389387	2
0	2796	897.148629136207	1
0	2801	897.556107281315	0
0	2819	900.526237990543	1
0	2823	904.102681516715	0
0	2829	904.232385632691	1
0	2834	905.658562240414	0
0	2840	906.689506747158	1
0	2843	907.174051898141	0
0	2860	909.392316010199	1
0	2862	911.74113749539	2
0	2865	914.564545475831	3
0	2868	915.303809903648	2
0	2874	917.064506993489	1
0	2879	917.898613523484	0
0	2950	948.808618513078	1
0	2953	955.104855934008	0
0	2963	957.938020773022	1
0	2967	958.117907444774	2
0	2969	958.905061309256	3
0	2977	961.841616574586	4
0	2981	962.858160226029	5
0	2982	962.878462176079	4
0	2992	964.663545484594	3
0	2997	964.739195405144	2
0	3002	965.95905713435	1
0	3011	975.146514786927	2
0	3017	977.84075794878	3
0	3018	980.282151120701	2
0	3023	980.879879610487	1
0	3030	981.716359560348	2
0	3032	984.34442173369	1
0	3043	986.160252945797	2
0	3045	986.462398789434	3
0	3050	996.939955091919	2
0	3056	997.981373914769	3
0	3057	998.315919087234	2
0	3065	999.704461567082	3
0	3066	1004.159628992731	2
0	3072	1004.511386937246	1
0	3078	1006.777784499712	0
0	3094	1008.180741378232	1
0	3097	1009.874063002449	2
0	3099	1011.479560103308	3
0	3100	1011.759872476796	2
0	3105	1011.791985233782	1
0	3110	1013.312675507267	0
0	3156	1025.401285784766	1
0	3157	1025.81646326174	0
0	3166	1029.497984900773	1
0	3170	1030.625515441988	0
0	3202	1040.864388724151	1
0	3205	1048.600931018576	0
0	3246	1065.561177015979	1
0	3249	1066.784380491707	0
0	3271	1079.21283006671	1
0	3272	1079.459072276845	0
0	3289	1081.770602040302	1
0	3291	1082.485598254061	2
0	3292	1082.606091431629	1
0	3297	1083.307352218563	0
0	3309	1086.584811233748	1
0	3310	1092.101921038002	0
0	3322	1094.221813193532	1
0	3323	1095.041110990065	0
0	3364	1119.068270699082	1
0	3367	1120.424666248712	0
0	3380	1124.284308671106	1
0	3381	1124.351236306266	0
0	3393	1125.867770361243	1
0	3394	1126.147451768668	0
0	3401	1128.691427056619	1
0	3402	1128.992188973758	0
0	3419	1134.563766707949	1
0	3426	1140.385681622939	0
0	3437	1140.780933185636	1
0	3438	1140.918841994701	0
0	3444	1141.287416296414	1
0	3448	1143.040327057533	2
0	3450	1143.38637816339	3
0	3451	1146.052886912689	2
0	3458	1146.958485721672	3
0	3460	1148.763834788262	4
0	3461	1150.302612139412	3
0	3469	1151.867554800249	2
0	3477	1153.907883901148	1
0	3482	1155.043063710029	0
0	3495	1159.04336901233	1
0	3496	1160.053087955623	0
0	3519	1169.425561436469	1
0	3520	1171.739076732201	0
0	3539	1177.491005111996	1
0	3540	1177.654953323345	0
0	3552	1181.904116464575	1
0	3553	1182.21373487429	0
0	3564	1183.379846683597	1
0	3567	1187.940349457125	0
0	3586	1191.253184444299	1
0	3588	1196.473724875408	0
0	3597	1197.845146988554	1
0	3599	1198.096447116541	2
0	3600	1198.742922837493	1
0	3606	1198.840895641307	2
0	3611	1203.995826007582	1
0	3619	1204.776685509414	2
0	3622	1215.301175848611	1
0	3629	1215.915727984587	2
0	3630	1216.710802092432	1
0	3636	1221.524050091481	0
0	3642	1221.58120129297	1
0	3645	1222.023748316983	2
0	3647	1222.519469651556	3
0	3649	1223.118732027551	4
0	3651	1224.889151524131	5
0	3652	1224.916750300209	4
0	3657	1226.188952108784	3
0	3662	1227.318940533906	2
0	3667	1227.525250557077	1
0	3675	1229.724299079021	2
0	3676	1229.82273842787	1
0	3682	1230.338703068499	0
0	3719	1243.144796930738	1
0	3723	1245.60028772521	0
0	3741	1247.87817215118	1
0	3742	1250.162673501598	0
0	3769	1263.38601456507	1
0	3771	1264.169731940823	2
0	3774	1265.45577495539	1
0	3780	1266.278267855023	0
0	3800	1269.683398588432	1
0	3801	1270.774611752553	0
0	3833	1280.732031848829	1
0	3835	1280.803745586335	2
0	3840	1285.125297098639	3
0	3842	1285.54777679064	4
0	3844	1286.56525756583	3
0	3850	1286.649188900204	4
0	3852	1287.192866899245	5
0	3853	1287.879834878807	4
0	3860	1288.518712765268	3
0	3865	1289.187978543241	2
0	3873	1293.540765808347	3
0	3874	1294.149714421365	2
0	3879	1295.310179255877	1
0	3886	1296.045630039743	0
0	3892	1296.728022472256	1
0	3896	1303.022729875533	2
0	3897	1303.862075082238	1
0	3902	1303.949098944365	0
0	3916	1306.062661859879	1
0	3917	1309.679232553578	0
0	3924	1310.290789476486	1
0	3925	1310.465794220838	0
0	3931	1311.857347881072	1
0	3932	1312.343553078031	0
0	3936	1312.566448631322	1
0	3938	1312.906855351608	2
0	3940	1314.953149180299	3
0	3944	1317.832631283401	4
0	3946	1318.83330180076	5
0	3950	1320.882472389056	6
0	3951	1321.336546521877	5
0	3956	1323.306893456135	4
0	3962	1323.883160738772	5
0	3967	1324.757646641244	6
0	3971	1326.93557373174	7
0	3972	1327.360736298447	6
0	3977	1327.786320420452	5
0	3983	1329.847533559107	6
0	3985	1329.850402430689	7
0	3986	1330.161543624093	6
0	3991	1331.019542084095	5
0	3998	1333.825172783788	4
0	4002	1334.488698248712	5
0	4013	1338.163208958636	6
0	4014	1338.348285132879	5
0	4024	1343.086973148123	6
0	4025	1346.026898034553	5
0	4031	1346.222348462627	6
0	4034	1349.121918765807	5
0	4041	1352.792702717121	4
0	4048	1354.183095985077	5
0	4049	1355.777499986272	4
0	4055	1356.626782144064	5
0	4057	1356.776308061053	6
0	4058	1359.504830882679	5
0	4064	1362.219301466217	6
0	4067	1362.751890156849	5
0	4077	1368.480608876536	4
0	4083	1369.774070035525	3
0	4089	1371.516477883675	2
0	4096	1372.715413341143	3
0	4097	1374.270285823688	2
0	4104	1374.515447010132	1
0	4109	1374.938862461904	0
0	4115	1375.837406898591	1
0	4118	1377.368477337277	2
0	4119	1378.773834257827	1
0	4126	1381.137947447281	0
0	4141	1386.645385977666	1
0	4146	1387.020394813015	0
0	4152	1387.544299039029	1
0	4155	1392.95640165221	0
0	4192	1397.272840138794	1
0	4206	1408.738894528035	2
0	4208	1410.261249713571	3
0	4210	1410.566933904196	4
0	4212	1411.986498931671	5
0	4215	1415.726864788186	4
0	4222	1416.91877871803	3
0	4230	1419.778730116421	2
0	4236	1422.241806558661	1
0	4242	1423.649832583599	0
0	4248	1425.050500674414	1
0	4250	1426.182087226296	2
0	4254	1429.942265762206	1
0	4259	1431.105745486982	0
0	4286	1434.825208068078	1
0	4287	1436.675000647028	0
0	4296	1437.467610508045	1
0	4298	1440.339912272029	2
0	4302	1441.607263472177	3
0	4306	1444.598386852608	4
0	4308	1445.025940440157	5
0	4309	1445.580975995401	4
0	4314	1446.084584382703	3
0	4321	1446.482400382404	4
0	4322	1447.496379349851	3
0	4330	1450.101997814419	2
0	4335	1452.25372831694	1
0	4341	1452.706279479012	2
0	4349	1454.621506751936	1
0	4358	1456.22071615892	2
0	4364	1457.112685835758	3
0	4365	1457.491671884188	2
0	4372	1458.490479059851	3
0	4373	1460.404093860458	2
0	4380	1460.977880619819	3
0	4384	1464.010708501343	4
0	4387	1468.062677954994	3
0	4393	1469.067032006466	2
0	4399	1470.490045997422	3
0	4400	1471.533877449093	2
0	4406	1476.838290007776	1
0	4413	1480.115776271824	0
0	4425	1480.9044483598	1
0	4427	1482.600069924335	2
0	4428	1482.980919922111	1
0	4434	1484.121025106068	0
0	4453	1489.855853906619	1
0	4454	1492.025108945931	0
0	4466	1492.516385970792	1
0	4467	1494.188520243436	0
0	4479	1499.674076637799	1
0	4480	1501.394917625324	0
0	4487	1502.041762051402	1
0	4488	1502.272692955682	0
0	4495	1507.071568682082	1
0	4496	1507.168508596764	0
0	4507	1510.318730250653	1
0	4509	1510.970452208108	2
0	4513	1515.93646074767	1
0	4519	1516.895118548043	2
0	4528	1518.969496933459	3
0	4530	1521.838300404753	2
0	4537	1523.711329831677	3
0	4538	1525.44554159325	2
0	4546	1530.645460005654	3
0	4549	1530.895922803338	2
0	4556	1532.13511190307	3
0	4560	1532.731139575479	4
0	4562	1533.593780056303	5
0	4563	1533.678792031236	4
0	4569	1534.045587502173	5
0	4570	1534.493387804533	4
0	4579	1536.523274430999	3
0	4585	1536.721742206395	4
0	4586	1536.891634894453	3
0	4593	1537.854241961821	2
0	4598	1541.524735426133	1
0	4603	1542.145603296623	0
0	4607	1543.258272431243	1
0	4609	1544.983073424672	2
0	4613	1548.999664226599	3
0	4618	1549.577123376999	4
0	4621	1551.423455815164	3
0	4627	1552.322428128281	4
0	4629	1552.379492456209	3
0	4634	1553.398718956941	2
0	4641	1554.612402642894	3
0	4645	1556.962379672954	2
0	4650	1557.058367225293	1
0	4655	1557.150347453689	0
0	4667	1559.738576654924	1
0	4669	1562.558751512588	0
0	4695	1567.506138668752	1
0	4697	1568.789487328608	0
0	4718	1574.387956263861	1
0	4725	1579.968429280562	0
0	4736	1581.307841386573	1
0	4738	1590.153731439345	0
0	4759	1599.998081954936	1
0	4760	1601.396655652769	0
0	4767	1602.158640686492	1
0	4768	1602.787964653278	0
0	4781	1604.18305221235	1
0	4785	1604.984777930131	2
0	4789	1605.460922640423	3
0	4792	1606.320308134565	4
0	4793	1607.694808064586	3
0	4799	1608.022619063438	4
0	4801	1609.811643336563	3
0	4807	1611.993807787597	4
0	4811	1613.012860793332	3
0	4818	1616.474942458692	2
0	4825	1617.039055765283	1
0	4832	1619.378418056743	0
0	4864	1630.065535517926	1
0	4865	1633.822124917876	0
0	4873	1636.482405034669	1
0	4874	1637.710752068576	0
0	4886	1638.564487180991	1
0	4888	1638.652115788106	2
0	4889	1641.35119742246	1
0	4897	1643.107302023356	2
0	4899	1644.259619224111	3
0	4900	1648.030125928942	2
0	4908	1650.020767171532	3
0	4911	1651.877138255731	4
0	4916	1654.71451370384	3
0	4923	1655.504326431123	4
0	4924	1658.205265953663	3
0	4932	1658.429398183113	2
0	4938	1659.68647336373	3
0	4940	1665.350149023343	2
0	4946	1665.58395770427	3
0	4947	1666.439522218622	2
0	4952	1670.001269017641	1
0	4959	1671.556193770806	0
0	5006	1683.074904477412	1
0	5008	1687.481119636221	2
0	5010	1688.103332844235	3
0	5012	1688.455194704859	4
0	5015	1691.498968144396	3
0	5020	1691.908709290636	2
0	5025	1692.563075923153	1
0	5032	1694.48208987423	0
0	5051	1697.651627512546	1
0	5054	1698.751235125037	0
0	5075	1705.074981045576	1
0	5081	1707.202371146347	2
0	5082	1708.084257641647	1
0	5088	1708.381275852264	2
0	5090	1709.306237883711	3
0	5091	1710.240550296982	2
0	5098	1711.090598988591	3
0	5099	1714.036739222583	2
0	5105	1714.300463514427	3
0	5107	1714.338074078467	4
0	5108	1714.600190777827	3
0	5122	1719.771208155406	4
0	5125	1720.583929947013	3
0	5131	1721.487924265972	2
0	5137	1721.793792259532	3
0	5140	1722.189196734403	4
0	5143	1722.345530500343	3
0	5158	1724.910740826667	4
0	5160	1726.269493493384	3
0	5165	1729.589897604399	2
0	5170	1729.812542383074	1
0	5175	1729.833475346945	0
0	5185	1730.651444334398	1
0	5187	1731.152859829772	0
0	5204	1733.524236393848	1
0	5205	1733.583411332511	0
0	5230	1738.308127919636	1
0	5231	1740.49174648624	0
0	5246	1745.684106696124	1
0	5250	1748.218976066447	2
0	5251	1748.990442287415	1
0	5256	1749.422250456325	0
0	5262	1749.531178887551	1
0	5265	1750.68984751745	0
0	5271	1751.078230734513	1
0	5273	1754.086186437416	0
0	5284	1755.087137739184	1
0	5287	1756.326141739869	2
0	5289	1757.117058171848	1
0	5295	1757.475318667834	0
0	5306	1759.777905579824	1
0	5308	1761.704553603534	0
0	5316	1763.730725418303	1
0	5318	1765.033924308951	2
0	5320	1766.209522357278	3
0	5321	1766.380969690988	2
0	5327	1767.78375803465	1
0	5332	1767.820243850474	0
0	5339	1769.376534046385	1
0	5341	1769.491625770358	2
0	5343	1769.664739803063	1
0	5351	1772.470446543155	0
0	5357	1773.075364161564	1
0	5358	1773.086460681659	0
0	5378	1785.782398859393	1
0	5382	1788.162176817343	2
0	5383	1788.827288159034	1
0	5392	1795.820851883088	2
0	5394	1796.603217079133	3
0	5395	1796.676421819959	2
0	5401	1798.316181355237	1
0	5406	1799.181977772183	0
0	5412	1799.847901720753	1
0	5413	1799.891060621091	0
0	5419	1801.284336612823	1
0	5420	1804.443265948693	0
0	5447	1811.443986387342	1
0	5449	1811.483288932402	2
0	5453	1812.3857073987	3
0	5457	1812.989317613977	2
0	5464	1815.1531689638	1
0	5472	1815.735618939027	0
0	5479	1817.118773225185	1
0	5483	1817.510344848033	2
0	5484	1818.111946868912	1
0	5494	1820.310894944102	0
0	5503	1823.447826604544	1
0	5507	1824.104953535064	2
0	5510	1824.320655022516	3
0	5514	1825.346128254904	4
0	5515	1826.059819774659	3
0	5521	1827.768375749732	4
0	5524	1829.664925088468	3
0	5530	1834.359199165553	2
0	5536	1835.346772720606	1
0	5544	1836.572580897835	0
0	5558	1840.178452578799	1
0	5559	1840.293285907819	0
0	5584	1846.461346743133	1
0	5585	1847.618277373224	0
0	5592	1847.944746532032	1
0	5593	1849.767409840056	0
0	5615	1856.687498865182	1
0	5616	1857.707819164503	0
0	5635	1861.706249642863	1
0	5638	1863.77141755338	0
0	5653	1871.957599399491	1
0	5654	1872.982786733072	0
0	5660	1873.307814228644	1
0	5663	1875.067590487162	2
0	5667	1876.579376093811	3
0	5668	1879.323853260059	2
0	5673	1879.93951192476	1
0	5679	1880.036161919018	2
0	5681	1880.259187227277	1
0	5692	1880.732883347601	0
0	5700	1881.9512073271	1
0	5701	1882.504645913017	0
0	5714	1885.171853873423	1
0	5716	1886.504145767971	0
0	5738	1893.841366662772	1
0	5741	1894.540018104681	2
0	5742	1894.585008296629	1
0	5747	1894.880714810149	0
0	5769	1899.771598308162	1
0	5770	1901.361569617328	0
0	5784	1903.259631095218	1
0	5785	1903.516084948074	0
0	5793	1904.673340234847	1
0	5794	1905.332751347475	0
0	5814	1910.745977897008	1
0	5815	1913.487752098141	0
0	5840	1923.984463275519	1
0	5842	1925.168988041728	2
0	5846	1925.652663281328	3
0	5847	1926.961665455026	2
0	5854	1930.773553000647	3
0	5855	1930.996592292836	2
0	5861	1931.724135710704	3
0	5863	1932.010913791924	4
0	5865	1933.426031850074	5
0	5867	1933.93300020719	4
0	5872	1934.896457278057	3
0	5878	1936.567225483617	2
0	5887	1941.486733372702	3
0	5889	1941.598904181288	4
0	5890	1941.872623991169	3
0	5896	1943.10354879691	2
0	5901	1943.492200116405	1
0	5908	1945.86681835925	0
0	5921	1948.883875478498	1
0	5925	1949.125285595895	2
0	5927	1950.118823198502	3
0	5930	1953.346479180433	2
0	5936	1953.563042168607	3
0	5938	1953.746038750294	2
0	5945	1954.768827857583	3
0	5946	1955.764397384579	2
0	5951	1955.856397332466	1
0	5958	1956.761196759125	2
0	5959	1957.602064996335	1
0	5964	1958.092902615807	0
0	5970	1959.23969409947	1
0	5978	1963.483956691347	0
0	6007	1975.122917428544	1
0	6013	1978.679868596815	2
0	6015	1979.308590312407	3
0	6017	1981.500500328888	4
0	6018	1984.260580874255	3
0	6027	1987.540880125958	4
0	6028	1988.14097313245	3
0	6033	1988.210682450968	2
0	6041	1990.329354630826	1
0	6047	1990.620983444895	2
0	6049	1990.956745867173	1
0	6055	1991.73663255553	0
0	6076	1996.932683048917	1
0	6077	1998.10863016143	0
0	6110	2009.603385631994	1
0	6111	2010.348171377839	0
0	6121	2011.597452572591	1
0	6124	2013.733797395145	0
0	6135	2018.098585271363	1
0	6137	2018.41475487718	0
0	6162	2025.210872911998	1
0	6163	2026.020725738584	0
0	6171	2026.926062101982	1
0	6173	2028.825906444451	0
0	6209	2040.720698843222	1
0	6212	2042.221492134659	0
0	6219	2043.976517593137	1
0	6221	2044.877654590033	2
0	6222	2047.527517290279	1
0	6228	2048.033018860533	2
0	6229	2048.534929881848	1
0	6234	2049.909451808527	0
0	6251	2052.595386815508	1
0	6254	2053.675038785207	0
0	6272	2058.217848401133	1
0	6273	2059.157865981451	0
0	6285	2062.384417609164	1
0	6287	2064.488320207503	2
0	6288	2064.864565073775	1
0	6298	2075.349739758854	0
0	6313	2082.572116015933	1
0	6317	2083.552014669609	2
0	6319	2084.040343324717	3
0	6321	2084.67772074202	4
0	6329	2089.828189637686	5
0	6331	2089.828936562931	6
0	6335	2091.370453298737	7
0	6336	2091.617280796797	6
0	6341	2092.472887740107	5
0	6347	2093.906764421475	4
0	6353	2096.245212382254	3
0	6361	2098.15970961344	4
0	6362	2100.574183468527	3
0	6367	2101.795644154184	2
0	6373	2103.156232128829	3
0	6375	2106.692785044341	2
0	6380	2108.745031524985	1
0	6386	2109.427176869793	0
0	6412	2117.195414954952	1
0	6417	2120.032938247164	0
0	6437	2129.725245398768	1
0	6438	2130.192785120072	0
0	6472	2144.269105648875	1
0	6473	2145.668636243158	0
0	6484	2148.26675321784	1
0	6485	2152.253158876155	0
0	6502	2161.306182263702	1
0	6504	2161.789469746175	2
0	6509	2163.763577297044	1
0	6514	2164.718047009343	0
0	6524	2167.607726168899	1
0	6531	2170.147399091318	0
0	6537	2170.361920097512	1
0	6539	2171.395467991429	0
0	6550	2174.173401943076	1
0	6552	2174.379800832054	2
0	6554	2175.447906197342	3
0	6558	2177.633096629567	4
0	6560	2178.875403415215	5
0	6561	2179.147205729805	4
0	6567	2181.396172751585	3
0	6572	2181.420649727617	2
0	6577	2181.893589961781	1
0	6583	2182.093870788858	2
0	6584	2182.457844540782	1
0	6591	2184.039476258003	2
0	6592	2184.195372299537	1
0	6597	2186.21630115659	0
0	6620	2194.818634956603	1
0	6622	2195.346122319468	2
0	6626	2197.090805581864	3
0	6636	2201.188600672124	4
0	6640	2201.609095876969	3
0	6646	2204.278389068662	2
0	6655	2207.186446934516	3
0	6656	2207.427340237884	2
0	6662	2207.511611928162	3
0	6667	2214.797620777593	2
0	6674	2217.297071774333	3
0	6675	2222.449309922747	2
0	6682	2223.07163639913	3
0	6685	2224.249401439227	2
0	6690	2224.376762438969	1
0	6695	2225.575832507751	0
0	6703	2227.919889376271	1
0	6704	2229.219920152745	0
0	6724	2232.955826473495	1
0	6725	2234.118916968669	0
0	6734	2235.37882109073	1
0	6735	2236.28381243266	0
0	6750	2240.352054698124	1
0	6753	2242.625970624965	0
0	6764	2244.417433812941	1
0	6765	2245.447102562825	0
0	6777	2247.991507661949	1
0	6779	2248.342449981908	2
0	6780	2248.529476935566	1
0	6787	2249.724245498937	0
0	6793	2250.539399818577	1
0	6801	2255.047805632523	0
0	6811	2257.092855698436	1
0	6813	2258.365991525676	0
0	6833	2269.869524948625	1
0	6835	2270.351603696048	2
0	6837	2272.957879436245	3
0	6840	2274.766670188402	2
0	6845	2274.874325950529	1
0	6853	2276.083537436313	2
0	6857	2283.550509405339	3
0	6858	2285.572915766605	2
0	6864	2285.760941715387	3
0	6865	2285.869857712983	2
0	6873	2288.546282531711	3
0	6874	2288.76837793587	2
0	6879	2289.383147813898	1
0	6884	2289.461098084545	0
0	6892	2289.902202921496	1
0	6896	2291.790129653567	0
0	6922	2296.805919683516	1
0	6923	2297.077643868941	0
0	6929	2297.418461348812	1
0	6930	2298.628237329656	0
0	6947	2301.974137447815	1
0	6949	2302.81921814503	0
0	6955	2303.542001220722	1
0	6956	2304.068747771542	0
0	6962	2305.932342278886	1
0	6968	2311.76875275015	2
0	6972	2316.871005097337	1
0	6976	2317.759152583533	2
0	6982	2319.809684384443	3
0	6984	2320.866639200006	4
0	6987	2325.281929803983	3
0	6994	2326.467662654654	2
0	6998	2326.533548631075	3
0	7005	2327.577623989992	4
0	7007	2329.43806907675	5
0	7011	2329.929100620573	6
0	7012	2331.691441028312	5
0	7019	2332.746402276777	6
0	7020	2333.363995983711	5
0	7026	2333.76303489273	6
0	7028	2334.800429630198	5
0	7033	2335.152321548163	4
0	7039	2336.849009100425	3
0	7048	2338.666889635624	2
0	7055	2340.238113130344	1
0	7061	2341.398445035053	0
0	7067	2342.492262524217	1
0	7069	2344.264103712572	2
0	7070	2346.406851480863	1
0	7079	2349.399558252999	0
0	7093	2351.373372020949	1
0	7094	2351.567940756632	0
0	7103	2354.915337052419	1
0	7105	2355.038363375527	2
0	7106	2355.290214565601	1
0	7111	2355.394934933011	0
0	7134	2358.66231874436	1
0	7137	2361.000695060549	2
0	7140	2363.887195902263	1
0	7146	2365.339486831622	0
0	7156	2367.969393486335	1
0	7157	2368.706699446881	0
0	7181	2379.092845189187	1
0	7182	2380.540449103589	0
0	7192	2383.372232689654	1
0	7193	2389.620621361547	0
0	7200	2390.259023537386	1
0	7202	2392.023298127532	0
0	7214	2395.337722512263	1
0	7217	2397.593648945541	0
0	7225	2399.0075986504	1
0	7228	2400.509858355312	2
0	7229	2402.243749810903	1
0	7234	2402.480142963417	0
0	7246	2403.947563561042	1
0	7248	2406.07778097485	2
0	7251	2406.453277842462	1
0	7258	2406.816284932998	0
0	7289	2412.94412104802	1
0	7291	2414.20963550122	2
0	7292	2414.985564042639	1
0	7300	2416.17163912648	0
0	7310	2417.65705408047	1
0	7313	2420.09028257902	0
0	7320	2420.520287270326	1
0	7323	2421.944553781363	0
0	7334	2425.939614239445	1
0	7335	2426.562617518662	0
0	7341	2427.36959654578	1
0	7343	2427.886086683258	2
0	7346	2429.78168466599	3
0	7347	2430.273087224934	2
0	7354	2433.060228410266	1
0	7360	2435.556245948403	0
0	7382	2440.883984320913	1
0	7384	2442.380553703864	2
0	7387	2443.66017373228	1
0	7396	2445.419095476866	2
0	7399	2446.698280734329	1
0	7406	2449.244083225197	0
0	7419	2453.540426307702	1
0	7421	2454.860379978382	2
0	7423	2456.364513118545	3
0	7424	2458.664257510759	2
0	7430	2458.904421691794	3
0	7433	2464.004877839636	2
0	7438	2464.514134593587	1
0	7443	2465.09260508331	0
0	7449	2465.362498726004	1
0	7450	2465.472636575735	0
0	7456	2465.586656473891	1
0	7461	2466.942817549738	0
0	7468	2469.292292792474	1
0	7481	2478.492213531712	0
0	7501	2482.133779390882	1
0	7504	2482.623073015334	2
0	7505	2483.102229051083	1
0	7518	2487.800029081424	2
0	7521	2492.482740066277	1
0	7529	2493.460941298907	2
0	7530	2494.201361451274	1
0	7536	2494.630268940302	0
0	7558	2496.005983889529	1
0	7561	2496.945377336037	0
0	7567	2497.216998630756	1
0	7570	2498.196342474449	2
0	7572	2498.798379110176	3
0	7576	2501.358800389572	4
0	7577	2505.550041429563	3
0	7582	2505.961784889793	2
0	7589	2507.307116916865	1
0	7594	2508.577900037118	0
0	7614	2519.187988362709	1
0	7615	2519.209254593292	0
0	7626	2521.234695418844	1
0	7630	2521.576124374726	0
0	7643	2522.355311106611	1
0	7646	2523.028367616308	2
0	7647	2525.687407586794	1
0	7654	2526.369308158769	0
0	7663	2529.155252015286	1
0	7664	2529.182975358077	0
0	7673	2532.893493958967	1
0	7676	2535.505571793424	0
0	7691	2537.928954986838	1
0	7695	2538.575436298215	2
0	7698	2539.688240321642	1
0	7703	2539.732540401679	0
0	7714	2541.00651839888	1
0	7717	2544.669624459403	0
0	7743	2562.925877744389	1
0	7744	2563.227048871611	0
0	7753	2568.889011806045	1
0	7756	2573.054709456169	0
0	7771	2574.675449161347	1
0	7773	2577.08849356859	0
0	7785	2579.179661133242	1
0	7786	2579.192753667521	0
0	7798	2582.294878851537	1
0	7804	2586.633109650228	2
0	7807	2590.496959487205	1
0	7813	2593.420268064274	0
0	7832	2597.307780544429	1
0	7833	2597.771708811291	0
0	7845	2601.117266094126	1
0	7846	2601.60889112189	0
0	7858	2605.628694353523	1
0	7859	2606.396199450575	0
0	7865	2608.468007527918	1
0	7867	2609.257784125158	0
0	7874	2610.843953170475	1
0	7876	2612.576298832218	2
0	7878	2612.880686535989	1
0	7883	2613.164716742206	0
0	7920	2624.88584412288	1
0	7922	2628.312243103333	2
0	7923	2628.766101811963	1
0	7935	2631.982740534584	0
0	7961	2638.221110085532	1
0	7965	2641.769997325398	2
0	7967	2645.139057748152	3
0	7969	2647.907340695347	4
0	7970	2648.193006985084	3
0	7976	2649.285090933097	4
0	7978	2650.859373208791	3
0	7984	2657.367732273363	2
0	7990	2657.437282318554	3
0	7992	2657.990453845303	4
0	7994	2658.587828969653	5
0	7996	2658.891887267737	6
0	7997	2659.009784654082	5
0	8003	2659.330077022388	6
0	8005	2659.656141146132	5
0	8010	2660.265065097676	4
0	8016	2661.088350648475	5
0	8022	2663.719948441928	6
0	8025	2666.272259868865	7
0	8033	2673.768089495005	6
0	8039	2674.160490363728	7
0	8042	2674.218130861841	6
0	8048	2674.677106684287	7
0	8050	2675.494269111003	8
0	8056	2679.437118410725	9
0	8057	2682.291499191442	8
0	8062	2682.678109112144	7
0	8067	2682.963795656658	6
0	8073	2684.921006698311	5
0	8078	2685.762050338916	4
0	8083	2687.487886895135	3
0	8092	2691.143100747622	4
0	8096	2691.934467045906	5
0	8097	2692.758852570988	4
0	8104	2695.111961115743	3
0	8111	2701.125526622898	2
0	8116	2701.349982029478	1
0	8121	2701.648022687242	0
0	8209	2732.864395542583	1
0	8212	2735.329107079583	0
0	8223	2738.092254386429	1
0	8227	2738.53192428564	2
0	8228	2738.855165016439	1
0	8234	2739.991302229148	2
0	8236	2740.080358218659	3
0	8238	2740.50766310431	4
0	8244	2745.805837152262	5
0	8246	2745.818663293758	6
0	8250	2748.097640234948	7
0	8251	2748.555476739391	6
0	8258	2749.403159750432	7
0	8259	2750.216142561865	6
0	8267	2754.572459347621	7
0	8268	2754.861129204885	6
0	8277	2759.556940609273	5
0	8287	2767.84159649834	6
0	8289	2768.8831415649	7
0	8290	2769.544065428228	6
0	8298	2770.516839931744	7
0	8299	2771.095548897402	6
0	8307	2775.01762040464	5
0	8313	2776.069723305619	4
0	8318	2779.695190156104	3
0	8327	2783.047961257689	2
0	8333	2784.091447741134	3
0	8334	2784.926831534737	2
0	8339	2785.940215176832	1
0	8353	2789.055413886447	0
0	8359	2789.986534465086	1
0	8363	2791.244768315385	2
0	8365	2792.681586898814	3
0	8370	2794.31000726078	2
0	8376	2795.098922253697	3
0	8378	2796.239698703507	4
0	8382	2798.93013267486	3
0	8389	2801.075719907633	4
0	8391	2801.824989530782	5
0	8392	2801.945487585181	4
0	8398	2803.14688086352	5
0	8399	2803.345563214841	4
0	8406	2805.194568519812	5
0	8407	2809.106173578781	4
0	8413	2809.36865105746	3
0	8420	2810.733987641605	2
0	8428	2817.620231543151	1
0	8435	2820.374095441772	0
0	8458	2824.354681636902	1
0	8460	2824.718258383927	2
0	8461	2824.800257412676	1
0	8466	2825.431135426567	0
0	8474	2826.325167369078	1
0	8475	2826.357740313587	0
0	8495	2828.005859935027	1
0	8505	2832.59752848715	2
0	8507	2833.145175823065	3
0	8509	2834.375571183025	2
0	8516	2837.4342325921	1
0	8521	2838.203353083504	0
0	8538	2847.116108116682	1
0	8542	2848.729540227496	2
0	8546	2850.778447678442	3
0	8547	2852.161107605273	2
0	8553	2854.909003191277	1
0	8559	2856.012931921289	0
0	8566	2857.027526827916	1
0	8568	2857.367384350123	2
0	8571	2859.514077284096	1
0	8577	2859.605222629735	2
0	8578	2860.168998428697	1
0	8583	2860.222534008451	0
0	8596	2860.997145030371	1
0	8598	2861.28012498821	2
0	8601	2865.032682385257	1
0	8607	2865.122400055438	2
0	8610	2868.982120179958	3
0	8612	2869.623960223253	4
0	8613	2872.864696044184	3
0	8622	2873.916267594909	2
0	8629	2878.223788273178	1
0	8636	2878.665567652523	0
0	8643	2879.805010409603	1
0	8645	2880.277362681387	0
0	8657	2887.444314361231	1
0	8658	2889.7993052884	0
0	8670	2893.145058993407	1
0	8671	2894.668570130559	0
0	8685	2901.39294780872	1
0	8686	2902.337647940336	0
0	8693	2902.782745478367	1
0	8694	2904.598557068435	0
0	8721	2907.467142859541	1
0	8723	2907.965103724526	2
0	8725	2908.05985814108	3
0	8729	2909.146886666755	4
0	8735	2915.156324558736	3
0	8740	2915.24547205369	2
0	8745	2915.334991545676	1
0	8756	2918.422018179512	2
0	8759	2920.748929830553	1
0	8765	2922.640872313133	0
0	8777	2924.838500393602	1
0	8779	2925.396444354358	0
0	8788	2931.642713621271	1
0	8790	2932.184772440565	2
0	8792	2932.285820612733	3
0	8793	2933.574308737472	2
0	8801	2936.259876186304	1
0	8810	2937.94165065312	2
0	8812	2939.151767008669	1
0	8817	2940.167006711058	0
0	8838	2943.692668592261	1
0	8839	2946.166711507606	0
0	8851	2951.150320918541	1
0	8852	2951.327382309603	0
0	8858	2951.55621629503	1
0	8860	2953.662825989123	2
0	8863	2955.714769311803	1
0	8872	2959.768584189618	0
0	8885	2960.443086252844	1
0	8888	2961.140041559016	0
0	8896	2961.915565225042	1
0	8897	2962.010724112104	0
0	8904	2962.307335205105	1
0	8907	2962.892242321477	2
0	8911	2964.186965062153	1
0	8917	2964.864429116504	2
0	8921	2972.443633196827	1
0	8927	2972.894705769328	0
0	8940	2977.08727980288	1
0	8941	2978.603761494117	0
0	8964	2982.868997606371	1
0	8965	2985.513605026799	0
0	8983	2986.625554722638	1
0	8985	2987.915539004797	2
0	8990	2989.408479208567	1
0	8996	2990.517542513261	2
0	8997	2991.024190143745	1
0	9005	2991.858497512717	2
0	9006	2992.169305629293	1
0	9013	2997.14907916273	2
0	9014	2997.336382270491	1
0	9021	2999.230118370795	2
0	9022	2999.383773736706	1
0	9028	3000.528096048281	0
0	9036	3001.36936951531	1
0	9038	3002.891978046578	2
0	9039	3004.721693671364	1
0	9043	3004.731610919788	2
0	9045	3005.500601816067	3
0	9048	3007.597814112556	2
0	9053	3008.634896370812	1
0	9057	3009.269221769243	2
0	9063	3011.419621100034	1
0	9070	3013.72213831709	2
0	9073	3015.446022583773	1
0	9079	3015.648084241174	2
0	9081	3016.540491380894	3
0	9082	3016.811075333371	2
0	9087	3017.466396373152	1
0	9094	3019.025153176249	0
0	9107	3023.78373255255	1
0	9108	3024.932448613428	0
0	9125	3028.15439724835	1
0	9126	3029.091590273649	0
0	9134	3030.194503994227	1
0	9138	3032.902664786991	2
0	9141	3037.159053671861	1
0	9146	3038.365635358037	0
0	9153	3039.653254925342	1
0	9156	3039.862234876448	2
0	9157	3040.309103481589	1
0	9163	3040.567948440728	2
0	9165	3043.496318962034	1
0	9172	3045.513809093087	2
0	9174	3047.215669251344	3
0	9175	3048.21189189406	2
0	9180	3048.324113411658	1
0	9185	3048.616937744647	0
0	9206	3052.470605495736	1
0	9207	3052.647760800997	0
0	9221	3058.612396276634	1
0	9223	3059.261419947314	2
0	9227	3060.657796727591	1
0	9233	3061.061282784621	2
0	9235	3061.772286253305	3
0	9236	3061.840839133744	2
0	9246	3067.649962178546	1
0	9252	3068.147646746794	0
0	9281	3075.000319737801	1
0	9286	3077.045935538898	0
0	9294	3078.858747634112	1
0	9295	3079.280036334302	0
0	9331	3092.2549227406	1
0	9334	3095.671188624541	0
0	9348	3097.913843084395	1
0	9352	3099.670983613434	0
0	9359	3100.396601411383	1
0	9360	3100.406946175709	0
0	9370	3101.960301973568	1
0	9373	3104.337538776825	0
0	9406	3120.346168339614	1
0	9407	3120.649725339418	0
0	9439	3132.401191835263	1
0	9443	3132.963986411347	2
0	9444	3134.701785968508	1
0	9453	3136.431040339879	2
0	9456	3137.255900280054	3
0	9458	3137.406054785437	4
0	9459	3137.719401089463	3
0	9469	3139.632171005418	2
0	9475	3139.670559620808	3
0	9476	3140.130437552042	2
0	9481	3140.137905957547	1
0	9487	3141.391807099854	0
0	9511	3145.424847006756	1
0	9515	3147.452627870623	2
0	9518	3147.75238575025	1
0	9523	3148.167427779677	0
0	9544	3157.128355132743	1
0	9546	3157.805348383077	2
0	9547	3159.571196609917	1
0	9554	3161.641037659649	2
0	9557	3165.940565472612	1
0	9567	3169.152078482209	0
0	9588	3172.489246291215	1
0	9590	3173.490237377509	2
0	9594	3174.381176109359	3
0	9596	3175.549724422836	4
0	9597	3178.695634665573	3
0	9603	3179.121708060596	4
0	9604	3179.403957508169	3
0	9614	3180.913599258306	2
0	9621	3187.537572437906	1
0	9627	3188.881098535249	0
0	9641	3196.519143392144	1
0	9642	3197.54625374565	0
0	9649	3199.174249149222	1
0	9651	3201.584585954696	2
0	9654	3203.325912664522	1
0	9659	3203.568006928968	0
0	9680	3206.940417036098	1
0	9681	3206.97043554034	0
0	9693	3215.668926172026	1
0	9694	3220.404505658317	0
0	9700	3222.400374956884	1
0	9703	3224.132807162318	2
0	9706	3224.241145626978	3
0	9707	3224.44547279217	2
0	9712	3225.08450410623	1
0	9717	3225.321520798987	0
0	9723	3225.970890351598	1
0	9729	3232.669172559072	0
0	9750	3236.238751445484	1
0	9755	3241.040331808	2
0	9757	3241.88111210435	3
0	9759	3245.181659237552	4
0	9761	3247.826498225163	5
0	9762	3248.178996410502	4
0	9767	3248.202532312018	3
0	9773	3248.746591607387	2
0	9780	3248.988887602443	3
0	9782	3249.407411066332	4
0	9785	3251.687178281377	5
0	9786	3253.751386611388	4
0	9793	3254.547568109754	5
0	9794	3254.647435087134	4
0	9804	3259.546531530288	3
0	9811	3261.357966380418	4
0	9813	3261.780231218082	5
0	9814	3263.524424533448	4
0	9821	3264.098780271002	3
0	9828	3264.446761246556	2
0	9833	3265.321423235792	1
0	9838	3265.73445203031	0
0	9871	3281.270841430442	1
0	9872	3281.674203620493	0
0	9895	3284.809588324052	1
0	9896	3284.97715949753	0
0	9964	3323.143672920012	1
0	9965	3326.759146309027	0
0	9977	3327.618048502902	1
0	9978	3328.16833495151	0
0	9988	3331.35754611535	1
0	9990	3331.762585423735	2
0	9992	3332.103134927835	3
0	9998	3335.561832098669	2
0	10004	3336.043699013819	3
0	10005	3336.244271076731	2
0	10012	3340.080682939896	1
0	10018	3340.899995683357	2
0	10019	3341.550259546234	1
0	10028	3343.307332413466	0
0	10034	3343.653694344169	1
0	10036	3343.736491783426	2
0	10042	3345.00403546268	3
0	10044	3348.235563781947	4
0	10046	3348.329163968799	5
0	10047	3349.796305956183	4
0	10052	3350.654640815305	3
0	10060	3351.198272820236	4
0	10061	3351.283677859191	3
0	10068	3351.432843337611	4
0	10069	3352.066632372877	3
0	10074	3354.836624216751	2
0	10082	3356.91948388184	3
0	10084	3357.45664806208	4
0	10086	3359.121119425659	5
0	10087	3359.30455753043	4
0	10094	3362.262793348494	5
0	10096	3362.646765214677	6
0	10097	3363.020722593311	5
0	10103	3363.926806651171	4
0	10109	3364.504661226111	5
0	10113	3365.846767361453	4
0	10118	3365.870922690818	3
0	10124	3366.2797871901	4
0	10126	3366.744135992882	3
0	10138	3368.49381290245	4
0	10140	3368.825832647248	5
0	10141	3369.2812339914	4
0	10148	3371.297124255727	5
0	10150	3371.850760742705	6
0	10152	3371.861859942749	7
0	10155	3372.887384997114	6
0	10162	3374.655991264951	7
0	10164	3377.836740523037	8
0	10166	3377.938461179757	9
0	10168	3378.661027037921	10
0	10169	3378.887049873722	9
0	10178	3385.856125494343	10
0	10179	3386.210859857169	9
0	10185	3387.289618529205	10
0	10187	3388.508194825469	11
0	10188	3389.34123940169	10
0	10193	3390.544021064048	9
0	10202	3393.147350275185	10
0	10205	3396.325129536974	9
0	10211	3398.042709674007	8
0	10217	3399.37084225443	9
0	10218	3401.347187001559	8
0	10224	3401.82396409292	9
0	10225	3402.786625649898	8
0	10230	3404.633888661298	7
0	10235	3405.038249356317	6
0	10239	3405.050423994017	7
0	10242	3406.219789163681	6
0	10246	3409.875199061038	7
0	10249	3411.311598673722	6
0	10260	3416.675979618806	7
0	10263	3418.309764516348	6
0	10269	3420.491601576276	5
0	10275	3421.339807717317	6
0	10279	3422.949914980958	7
0	10280	3423.722292954085	6
0	10285	3424.244415909145	5
0	10291	3424.84718789882	6
0	10294	3427.609723519428	5
0	10304	3431.853928207336	6
0	10308	3432.745022339675	7
0	10310	3434.581016942128	8
0	10312	3434.868640951597	9
0	10313	3436.207417091506	8
0	10322	3437.987526522672	9
0	10325	3440.178230154364	8
0	10331	3442.647401250449	7
0	10340	3449.185514231906	6
0	10349	3452.203917333359	7
0	10353	3459.887706703549	8
0	10354	3460.342242315206	7
0	10360	3460.728352449961	6
0	10367	3461.052783385339	7
0	10368	3461.967254789602	6
0	10374	3463.686594759437	5
0	10379	3464.117015914089	4
0	10386	3467.028068869564	3
0	10393	3468.283474846169	4
0	10394	3468.926337640558	3
0	10399	3469.555966810981	2
0	10404	3469.810529739538	1
0	10410	3469.919259587019	2
0	10413	3470.28249880703	3
0	10414	3470.300278504224	2
0	10425	3474.026045965128	1
0	10430	3475.067844093064	0
0	10458	3480.709620856075	1
0	10459	3480.891076736674	0
0	10466	3481.568336971629	1
0	10467	3481.642397948702	0
0	10476	3483.14034201814	1
0	10478	3484.239469649514	2
0	10479	3485.557588071725	1
0	10485	3489.000812052474	0
0	10493	3489.994923121206	1
0	10497	3491.183297769438	0
0	10504	3494.552188260519	1
0	10505	3495.23190257697	0
0	10528	3500.646675485185	1
0	10529	3502.361162632448	0
0	10545	3506.548094151917	1
0	10550	3508.458569652821	0
0	10572	3520.670272188654	1
0	10577	3521.569347570738	0
0	10588	3521.821960650674	1
0	10591	3523.671875269595	0
0	10599	3526.440878414669	1
0	10601	3528.084619793868	2
0	10604	3528.921648584743	1
0	10609	3529.205741350792	0
0	10615	3529.726860089776	1
0	10616	3531.169179627536	0
0	10663	3544.289419769197	1
0	10665	3544.366122437398	2
0	10669	3546.573370071027	1
0	10676	3549.208878480952	0
0	10682	3550.171270289878	1
0	10685	3551.49412563519	2
0	10690	3553.288491618913	1
0	10696	3556.287705119561	0
0	10708	3558.289099384122	1
0	10710	3559.077616054347	2
0	10712	3559.737779070032	3
0	10713	3562.599887272575	2
0	10718	3563.151256749609	1
0	10723	3563.262000816528	0
0	10742	3567.443770969336	1
0	10743	3570.715982686859	0
0	10767	3575.799449397167	1
0	10768	3576.042335450974	0
0	10779	3578.40763550501	1
0	10780	3579.302252646977	0
0	10790	3582.281795556908	1
0	10796	3583.607149243777	0
0	10818	3591.67200801941	1
0	10820	3592.002702739212	2
0	10825	3593.135067816528	1
0	10830	3593.139256463837	0
0	10865	3606.88892286811	1
0	10866	3608.086579082599	0
0	10877	3610.828649043381	1
0	10879	3611.971014817	2
0	10883	3612.782573197377	3
0	10890	3613.820214732209	4
0	10893	3616.289979171104	5
0	10897	3616.918155693274	6
0	10899	3621.872147574817	7
0	10901	3624.456127293118	8
0	10902	3624.92374795388	7
0	10907	3625.899161284182	6
0	10912	3625.999731103748	5
0	10919	3626.647701598801	6
0	10922	3627.212026927687	5
0	10927	3629.779474159891	4
0	10934	3631.308170252332	5
0	10937	3633.50915717474	4
0	10944	3634.641200359794	3
0	10951	3635.182941549242	4
0	10957	3636.15128732244	5
0	10959	3637.726585617598	6
0	10960	3638.254351182078	5
0	10965	3638.479834908906	4
0	10973	3639.949239879059	5
0	10974	3640.803604823865	4
0	10980	3641.163575318211	3
0	10986	3642.128531286413	2
0	10992	3642.998861619442	3
0	10997	3644.19948999258	2
0	11005	3645.45234192398	1
0	11010	3646.157313361299	0
0	11053	3661.831058263902	1
0	11056	3666.421018160916	0
0	11068	3667.812303599087	1
0	11072	3669.6838040696	2
0	11074	3669.963703662842	3
0	11076	3671.533504364502	4
0	11080	3673.521635778246	5
0	11081	3673.980498543644	4
0	11086	3674.577514173089	3
0	11094	3681.287293265265	2
0	11099	3683.672606947756	1
0	11105	3684.473822170711	0
0	11112	3686.144726414454	1
0	11113	3688.847933615987	0
0	11125	3691.560633628149	1
0	11127	3692.002339604955	0
0	11139	3694.430676641045	1
0	11141	3696.01454696241	0
0	11147	3696.081256842501	1
0	11150	3697.799318589583	0
0	11166	3700.058451803284	1
0	11169	3703.531178705627	0
0	11175	3704.568196597391	1
0	11177	3704.732130542675	2
0	11181	3707.780429892665	1
0	11188	3711.708823607068	2
0	11189	3711.931004996183	1
0	11198	3714.214412741161	2
0	11205	3716.776393052197	1
0	11212	3717.802239937406	2
0	11213	3720.902577184846	1
0	11218	3721.014267983854	0
0	11234	3723.212966298922	1
0	11235	3724.833978830971	0
0	11250	3727.557568956962	1
0	11252	3728.90010569985	0
0	11259	3729.542208449361	1
0	11260	3731.704578372817	0
0	11266	3732.648967879684	1
0	11268	3733.759745342956	0
0	11274	3733.95317054615	1
0	11276	3734.90357778528	0
0	11283	3736.129891096658	1
0	11287	3740.486010847858	2
0	11288	3741.561581822218	1
0	11295	3743.465118034221	2
0	11296	3743.771183794647	1
0	11302	3744.158840928075	0
0	11323	3750.16371568474	1
0	11325	3753.40525614926	2
0	11328	3757.315835852676	1
0	11335	3760.356096647501	2
0	11336	3761.150092227396	1
0	11341	3761.443286348475	0
0	11355	3764.390837275126	1
0	11360	3767.088357855859	0
0	11367	3767.971078314171	1
0	11371	3770.119679411539	2
0	11374	3771.971142573	1
0	11381	3773.268492493341	0
0	11403	3779.638399306237	1
0	11407	3780.325120448715	2
0	11408	3782.250422419395	1
0	11413	3782.81587660618	0
0	11419	3783.169175323256	1
0	11423	3785.21265669151	0
0	11438	3788.689351244993	1
0	11446	3792.979073671272	2
0	11448	3793.145383818579	1
0	11453	3793.551293527823	0
0	11478	3796.761180322781	1
0	11479	3796.867712258324	0
0	11509	3807.742342224015	1
0	11510	3808.877826530083	0
0	11516	3809.493259856421	1
0	11520	3812.245474562742	0
0	11529	3815.301278841411	1
0	11535	3818.694571784554	0
0	11541	3818.995870914074	1
0	11543	3820.993008489495	0
0	11558	3825.759906850597	1
0	11561	3826.619792126831	0
0	11581	3833.320553897123	1
0	11583	3833.77670675991	2
0	11585	3834.256038828278	3
0	11591	3835.880600596479	4
0	11592	3836.310247686698	3
0	11602	3840.708138335215	4
0	11604	3840.822098361432	5
0	11605	3841.820967311828	4
0	11610	3842.025285705557	3
0	11618	3843.318391539652	4
0	11619	3843.777037081738	3
0	11625	3844.39752813505	4
0	11627	3844.747222796631	3
0	11635	3846.654188527313	4
0	11637	3847.022251339711	5
0	11640	3847.378597113788	4
0	11647	3850.981192973498	5
0	11648	3851.72555814075	4
0	11654	3852.317816829835	5
0	11658	3856.254371048108	4
0	11664	3856.900725746399	3
0	11670	3857.225223281059	4
0	11671	3857.253393015642	3
0	11681	3859.03886237751	2
0	11687	3859.446385555208	1
0	11692	3859.773736456626	0
0	11700	3862.835770416409	1
0	11702	3865.990836536943	2
0	11707	3868.778142939859	3
0	11709	3869.160090483319	4
0	11710	3871.857908227496	3
0	11715	3871.85977799438	2
0	11720	3873.541819360318	1
0	11725	3873.836508272857	0
0	11729	3873.838473951515	1
0	11731	3874.61124322333	2
0	11733	3874.690225095799	3
0	11735	3876.953933987043	4
0	11738	3882.974258427336	3
0	11743	3883.454327698658	2
0	11752	3884.807068189408	3
0	11753	3885.608997413706	2
0	11761	3886.695677284834	3
0	11762	3886.700180224736	2
0	11769	3887.527565663106	3
0	11772	3888.534240070412	2
0	11778	3889.248478647635	3
0	11782	3892.60978069114	2
0	11788	3893.406083132747	1
0	11794	3893.663474642552	0
0	11806	3895.202570653037	1
0	11811	3896.7721714014	0
0	11820	3899.306923164502	1
0	11823	3903.546615325219	0
0	11831	3907.582961988378	1
0	11832	3907.781871240267	0
0	11838	3908.524292857175	1
0	11843	3911.616671654118	0
0	11862	3916.603176673486	1
0	11865	3917.518400385259	2
0	11872	3923.592532029807	1
0	11877	3924.515293308298	0
0	11890	3926.476636605126	1
0	11892	3927.669372979735	2
0	11894	3930.487772139365	3
0	11895	3931.254993084012	2
0	11901	3931.26069863531	3
0	11904	3931.385407990212	2
0	11915	3934.739060270754	3
0	11917	3934.795911134019	4
0	11920	3935.290168696948	3
0	11927	3936.752854503348	2
0	11932	3936.769870568693	1
0	11938	3937.441562957663	0
0	11947	3938.326632718338	1
0	11949	3939.021350160519	2
0	11951	3939.231698887965	3
0	11957	3945.15675272766	2
0	11964	3952.628471484905	1
0	11972	3955.247709826584	0
0	11991	3958.331919768786	1
0	11997	3961.815466065285	2
0	11999	3964.274471183812	1
0	12005	3968.41107663225	0
0	12011	3969.032912248505	1
0	12014	3969.192157028573	2
0	12016	3969.58743652167	3
0	12018	3969.74013496996	4
0	12019	3971.522410386669	3
0	12026	3973.028713524765	4
0	12028	3975.07972164315	3
0	12035	3975.105945156451	2
0	12041	3975.407011738952	3
0	12043	3976.714095114379	4
0	12045	3977.357563489327	3
0	12055	3983.741399154293	2
0	12060	3984.336709175754	1
0	12065	3984.864794601728	0
0	12093	3996.459978130026	1
0	12094	3997.04579057466	0
0	12106	4000.251385318945	1
0	12107	4002.263748516247	0
0	12117	4003.986585660102	1
0	12119	4004.228159694485	2
0	12121	4005.000448138877	3
0	12125	4006.745314539019	4
0	12130	4013.624040467618	3
0	12135	4014.421006677743	2
0	12142	4016.162759825015	3
0	12143	4016.20415356699	2
0	12151	4018.51299862675	3
0	12152	4019.107608859077	2
0	12159	4020.496334880643	3
0	12163	4023.503366320403	2
0	12172	4026.719049232572	1
0	12180	4031.122994185149	0
0	12187	4035.080067988092	1
0	12189	4035.087733244207	2
0	12190	4035.849148788164	1
0	12196	4035.861769486112	2
0	12197	4036.431522673236	1
0	12202	4036.638904780355	0
0	12229	4044.384368325108	1
0	12231	4046.865951284168	2
0	12232	4047.218571728751	1
0	12237	4047.853520823146	0
0	12250	4049.648671659693	1
0	12252	4050.496953455498	0
0	12267	4053.00956636737	1
0	12272	4055.735728673026	0
0	12310	4071.070777136624	1
0	12311	4071.871103052743	0
0	12324	4082.440012657433	1
0	12328	4084.842725417676	0
0	12335	4087.507562273677	1
0	12337	4087.613747244667	2
0	12339	4089.724627541523	3
0	12340	4092.982352485113	2
0	12346	4093.030700775945	3
0	12348	4094.680317105941	2
0	12353	4096.052689895423	1
0	12359	4096.351768243327	2
0	12363	4098.129049824411	3
0	12366	4100.473841301397	2
0	12372	4100.556441176639	3
0	12373	4101.90236930796	2
0	12379	4102.724642638886	1
0	12385	4103.446258326866	2
0	12388	4103.631212707847	1
0	12396	4104.782665943437	2
0	12397	4104.898647488548	1
0	12402	4104.966676655091	0
0	12408	4105.742660234945	1
0	12410	4105.856172778719	2
0	12412	4106.305352413912	1
0	12418	4112.549783444018	2
0	12421	4113.604488049126	1
0	12426	4115.222664108472	0
0	12432	4116.134117308713	1
0	12433	4116.914652751211	0
0	12437	4117.703755346623	1
0	12444	4120.452445428848	2
0	12445	4120.480082439821	1
0	12451	4120.661825694596	2
0	12455	4124.71275334917	3
0	12458	4126.903935276289	2
0	12463	4127.292449353207	1
0	12469	4131.141780978496	0
0	12491	4137.311852567505	1
0	12494	4137.589353857542	0
0	12503	4139.716654683645	1
0	12507	4141.417250900715	2
0	12508	4141.52130570746	1
0	12514	4143.461166984276	0
0	12523	4144.652772447239	1
0	12525	4144.79494995137	2
0	12527	4147.694202622435	1
0	12533	4149.424138225441	0
0	12552	4155.967572704081	1
0	12553	4157.488127919569	0
0	12559	4158.375107650169	1
0	12561	4160.014480432131	0
0	12580	4164.974968682633	1
0	12581	4165.394570779898	0
0	12597	4168.307903752184	1
0	12598	4169.170508886147	0
0	12610	4171.3720489984	1
0	12612	4172.591762463438	2
0	12614	4173.199579411379	3
0	12615	4175.576623475526	2
0	12621	4177.87039683796	1
0	12627	4179.103538641465	0
0	12647	4183.553785065272	1
0	12649	4183.884037155658	2
0	12652	4184.627728753856	1
0	12657	4184.846036588581	0
0	12663	4185.113779559708	1
0	12665	4187.274836168903	0
0	12671	4187.294227577298	1
0	12675	4189.845926666662	0
0	12685	4192.036708354103	1
0	12686	4193.219129674169	0
0	12694	4195.049121495128	1
0	12695	4195.744638666737	0
0	12730	4211.411643524292	1
0	12733	4212.674520324315	2
0	12734	4212.864182543494	1
0	12740	4213.672799328544	2
0	12741	4213.695588642236	1
0	12750	4214.135829672238	2
0	12752	4215.508765672273	1
0	12758	4216.504403827667	2
0	12761	4217.330967726058	3
0	12762	4219.104104254383	2
0	12768	4219.587429651657	1
0	12774	4221.142895744591	0
0	12780	4221.392655075399	1
0	12781	4221.86018066811	0
0	12787	4223.445744002879	1
0	12789	4223.877007616631	2
0	12791	4224.136170955993	3
0	12793	4224.18339476227	4
0	12795	4224.283392611304	3
0	12801	4226.34541652445	4
0	12802	4226.435401370286	3
0	12810	4227.522802165801	2
0	12816	4228.441242331572	3
0	12819	4230.772542433291	2
0	12831	4239.005684248951	1
0	12837	4240.234513027704	2
0	12838	4240.308852946536	1
0	12846	4241.892533696782	2
0	12850	4242.73172917575	3
0	12855	4244.292354873023	2
0	12861	4246.947139238955	1
0	12867	4247.552115194693	0
0	12873	4248.160922191059	1
0	12875	4249.264757347196	0
0	12882	4250.273071602343	1
0	12884	4251.67499993504	2
0	12885	4254.722046784935	1
0	12891	4255.985739618497	0
0	12906	4257.933646780524	1
0	12907	4258.183703374599	0
0	12919	4260.490404425993	1
0	12920	4262.029728039988	0
0	12944	4273.956889753067	1
0	12946	4273.989674818537	2
0	12948	4274.415013311043	3
0	12950	4274.924686881766	4
0	12952	4275.027911440845	5
0	12956	4276.57229248835	6
0	12957	4276.654343824131	5
0	12962	4276.664559410944	4
0	12969	4277.448539307323	5
0	12970	4277.800654744165	4
0	12976	4279.357791187632	5
0	12977	4280.478721248767	4
0	12982	4280.580880868058	3
0	12989	4281.364162096168	4
0	12990	4281.459396567637	3
0	12994	4283.739886773235	4
0	12996	4283.757825459114	5
0	12998	4284.807946632209	6
0	13002	4286.773148106435	5
0	13014	4289.035090295122	6
0	13016	4289.090437814836	7
0	13019	4291.141412137596	8
0	13023	4292.598115333165	7
0	13029	4293.984200464121	6
0	13036	4294.273579252131	7
0	13037	4294.311708315568	6
0	13045	4295.867533244514	7
0	13047	4296.907684135143	8
0	13049	4297.375077795467	9
0	13051	4297.935219560511	10
0	13052	4298.576092893709	9
0	13058	4298.626771912135	10
0	13060	4301.780032227609	9
0	13065	4302.150152996848	8
0	13070	4302.267511854371	7
0	13077	4304.361371601095	8
0	13081	4305.42797167027	7
0	13098	4311.405134288056	6
0	13103	4311.958301653087	5
0	13108	4314.223160645303	4
0	13114	4314.379489528714	5
0	13115	4314.990310324553	4
0	13121	4315.420196672702	3
0	13126	4315.492355639884	2
0	13130	4315.984197062488	3
0	13133	4316.346200103921	2
0	13141	4321.481885263463	3
0	13142	4322.993510233495	2
0	13148	4323.549817056759	3
0	13151	4325.116962861786	4
0	13154	4329.338202130478	3
0	13159	4329.401532657428	2
0	13163	4329.769680966769	3
0	13167	4331.126968920791	4
0	13169	4331.949547715637	5
0	13172	4332.898587900552	4
0	13177	4333.585168323689	3
0	13183	4335.276960251103	2
0	13192	4337.423887530101	3
0	13194	4340.211494550395	2
0	13200	4342.744890718714	1
0	13206	4345.774932604878	0
0	13212	4347.435189027048	1
0	13213	4347.475213605879	0
0	13224	4348.496215025112	1
0	13229	4349.675765081961	0
0	13239	4352.6919610575	1
0	13240	4354.198158893503	0
0	13247	4354.97859132502	1
0	13248	4356.409542744966	0
0	13262	4360.312424855296	1
0	13267	4364.693138288585	0
0	13273	4365.123064545595	1
0	13278	4368.217743710355	0
0	13284	4368.256421185693	1
0	13288	4369.443534448994	0
0	13327	4380.60285647315	1
0	13334	4385.533424578017	0
0	13347	4388.115713050363	1
0	13348	4389.142440597946	0
0	13357	4391.931841550719	1
0	13360	4393.713827295495	0
0	13378	4400.84168547146	1
0	13379	4401.522619092641	0
0	13393	4404.252399970731	1
0	13394	4404.343832845028	0
0	13414	4406.361869090735	1
0	13415	4407.156901697299	0
0	13422	4408.401192435773	1
0	13424	4408.406476295889	2
0	13426	4409.107945372781	1
0	13432	4412.21981906268	0
0	13469	4419.962084897886	1
0	13470	4425.471648413947	0
0	13477	4426.037615658036	1
0	13478	4428.773586725785	0
0	13487	4429.2063037997	1
0	13493	4430.811861415569	0
0	13499	4430.82515109754	1
0	13500	4430.906990362412	0
0	13507	4432.091215256366	1
0	13508	4432.780280692832	0
0	13526	4437.026347344028	1
0	13532	4440.926666509561	0
0	13539	4442.232145578693	1
0	13540	4442.354964537156	0
0	13555	4447.456290262345	1
0	13559	4451.877798779483	2
0	13564	4452.903476917114	1
0	13570	4455.490121389079	0
0	13578	4457.773378290058	1
0	13580	4459.88745657422	2
0	13582	4460.320668637963	3
0	13583	4461.511473501168	2
0	13589	4465.232479527416	1
0	13594	4465.581275235204	0
0	13619	4471.539216514527	1
0	13621	4474.172215109587	2
0	13623	4474.588463194056	3
0	13627	4475.186462636675	4
0	13631	4477.945912457003	5
0	13632	4478.698503245285	4
0	13638	4479.33052571366	3
0	13643	4479.517587574919	2
0	13648	4479.573197659526	1
0	13654	4481.346838476712	0
0	13660	4481.933407351598	1
0	13666	4486.611396296057	0
0	13711	4500.736608895208	1
0	13712	4502.746626149119	0
0	13721	4509.437502824957	1
0	13723	4509.616817815666	2
0	13725	4510.315519317553	3
0	13726	4510.434536955375	2
0	13733	4512.090818571823	1
0	13738	4512.594428508289	0
0	13747	4516.880484201192	1
0	13749	4517.840623097174	2
0	13751	4518.362434426857	3
0	13753	4518.595189442464	4
0	13756	4519.423753783691	3
0	13761	4519.428551702435	2
0	13765	4519.903642358587	3
0	13769	4522.157746906245	2
0	13777	4524.645444301322	1
0	13783	4524.735760598918	2
0	13786	4527.009910485116	3
0	13791	4528.617847736318	4
0	13793	4530.562898552308	5
0	13794	4531.119180218134	4
0	13799	4531.276580384758	3
0	13804	4533.005508401852	2
0	13810	4533.2045057309	3
0	13820	4536.46218550229	2
0	13825	4536.805626749008	1
0	13830	4536.843032915525	0
0	13840	4539.936643360069	1
0	13842	4541.697281238243	2
0	13846	4542.0236440317	3
0	13847	4542.364886099728	2
0	13853	4542.654646702332	3
0	13855	4542.707891691113	4
0	13858	4543.885957598037	5
0	13861	4546.090020290581	4
0	13866	4546.3275978695	3
0	13874	4549.431061124665	2
0	13881	4550.448872485977	1
0	13892	4553.965042981469	2
0	13894	4554.515067409314	3
0	13896	4555.625500727405	4
0	13898	4556.725212368125	5
0	13901	4558.726918015528	4
0	13906	4560.775555771844	3
0	13913	4561.406245782671	2
0	13921	4563.279222910643	1
0	13928	4566.30477574898	0
0	13947	4568.125959314635	1
0	13949	4570.594248666804	0
0	14013	4587.74324219567	1
0	14015	4589.194943641438	2
0	14019	4590.503431991791	3
0	14020	4591.170837673862	2
0	14028	4593.227119889393	1
0	14035	4594.706367597574	2
0	14036	4596.437470640863	1
0	14041	4596.858237821729	0
0	14051	4599.455508062561	1
0	14056	4600.861932166236	0
0	14062	4601.007478144647	1
0	14064	4601.156704087787	2
0	14067	4601.662986447004	1
0	14073	4602.925847336039	2
0	14082	4605.13496697557	3
0	14084	4605.458319978814	4
0	14086	4606.055330220866	5
0	14088	4607.41261476474	6
0	14089	4608.550738429552	5
0	14094	4608.578071558961	4
0	14102	4610.807503868994	3
0	14108	4611.026013710293	4
0	14110	4611.33582831457	5
0	14111	4611.629088757051	4
0	14116	4611.644257199048	3
0	14125	4614.429059046998	4
0	14130	4617.075305505118	3
0	14138	4620.763870393374	2
0	14144	4621.289638275811	3
0	14145	4621.699713453064	2
0	14150	4622.146719931568	1
0	14161	4625.576544953815	2
0	14162	4625.59676014279	1
0	14167	4627.217198305274	0
0	14193	4636.321252568492	1
0	14194	4637.078970052075	0
0	14203	4637.589871838506	1
0	14207	4638.544658747799	2
0	14209	4639.43118110761	3
0	14211	4640.884910168595	4
0	14214	4641.056447837641	3
0	14220	4641.950180772164	4
0	14224	4642.853871123564	3
0	14230	4644.374645635765	2
0	14235	4645.610418542559	1
0	14242	4646.203364852135	2
0	14246	4647.779402674019	1
0	14252	4648.564936154015	0
0	14266	4654.605621875041	1
0	14268	4657.161252636378	2
0	14271	4658.260298905266	1
0	14282	4659.780304184532	0
0	14288	4659.902156684437	1
0	14291	4660.972317486103	2
0	14294	4661.151316565076	3
0	14296	4661.699581087355	4
0	14297	4661.908315721795	3
0	14302	4663.093374981572	2
0	14308	4663.552770013354	3
0	14310	4664.704471925681	4
0	14313	4665.386738105047	5
0	14315	4666.204057908854	4
0	14325	4668.356087948941	3
0	14330	4668.491518504538	2
0	14336	4668.708987565714	3
0	14340	4669.841967239182	4
0	14341	4670.742409778307	3
0	14348	4678.945820117288	2
0	14355	4680.348692942616	3
0	14356	4680.680068424896	2
0	14362	4683.017389531789	1
0	14368	4683.554637591778	0
0	14378	4691.378942720154	1
0	14381	4692.546998682199	0
0	14398	4697.803982689218	1
0	14399	4697.847229291291	0
0	14405	4698.452075278883	1
0	14406	4699.811049508209	0
0	14438	4708.208409784064	1
0	14440	4710.040777754715	2
0	14441	4710.449864118206	1
0	14447	4712.168355296312	2
0	14449	4713.462267741092	1
0	14460	4716.509452347316	2
0	14462	4717.689942018283	3
0	14468	4721.735361885361	4
0	14469	4722.658707424648	3
0	14483	4736.308255570538	2
0	14489	4736.663479166393	3
0	14491	4737.070858081463	2
0	14498	4738.041414680984	3
0	14499	4738.222327659955	2
0	14506	4739.788223698751	1
0	14512	4740.682361475495	2
0	14514	4744.720769551846	1
0	14523	4749.471419773193	0
0	14573	4768.826229996443	1
0	14575	4770.764742065823	2
0	14577	4772.382877646875	3
0	14579	4773.092096698239	4
0	14580	4780.41467089057	3
0	14586	4782.501150063673	2
0	14593	4783.350175986266	3
0	14594	4784.253858083404	2
0	14599	4784.365279287579	1
0	14605	4784.898854714073	0
0	14614	4786.512906070341	1
0	14616	4786.598933909703	2
0	14620	4788.825022563831	1
0	14625	4789.856159705573	0
0	14638	4795.026826510185	1
0	14639	4795.881686056839	0
0	14653	4800.229566212288	1
0	14655	4800.290950261062	2
0	14658	4802.104870133919	1
0	14663	4803.631239052724	0
0	14675	4805.242590722202	1
0	14677	4805.759836602932	2
0	14689	4808.861846977095	1
0	14695	4811.614666349224	0
0	14701	4812.959135744882	1
0	14704	4818.443079410552	0
0	14713	4822.391532225561	1
0	14715	4825.854470224249	2
0	14716	4825.959954015027	1
0	14723	4827.222892255289	2
0	14724	4829.666343060354	1
0	14735	4837.557600173963	2
0	14736	4837.60257104864	1
0	14742	4838.760578237348	0
0	14770	4842.347530147025	1
0	14772	4843.33192904854	2
0	14773	4844.264285176258	1
0	14779	4844.77001882845	0
0	14786	4851.902141207116	1
0	14789	4852.093927009177	0
0	14803	4853.729892038698	1
0	14809	4859.487446348649	2
0	14810	4859.665325354473	1
0	14818	4863.972730189304	0
0	14835	4866.098015172118	1
0	14837	4868.036685198294	2
0	14838	4868.162883039468	1
0	14844	4869.383473604739	2
0	14848	4873.198853359377	1
0	14853	4873.368791222655	0
0	14877	4884.002466978715	1
0	14880	4888.703815880684	0
0	14886	4888.729347374736	1
0	14887	4888.896665037604	0
0	14907	4892.529622493178	1
0	14908	4892.888727407398	0
0	14918	4895.697753334213	1
0	14922	4896.177845763797	2
0	14925	4900.813954669843	1
0	14935	4901.746596594388	0
0	14951	4905.85545924476	1
0	14953	4906.302176653678	2
0	14956	4909.295731085075	1
0	14961	4909.74168885354	0
0	14969	4910.918013156458	1
0	14971	4911.726615618119	0
0	14977	4912.390592769679	1
0	14978	4912.72749641561	0
0	14985	4914.379037529015	1
0	14987	4915.611258232256	2
0	14988	4916.03150994689	1
0	14993	4917.696557696535	0
0	15017	4928.678208198948	1
0	15020	4930.465560681333	2
0	15022	4931.216129256809	3
0	15024	4932.481791517537	2
0	15030	4934.3084263071	1
0	15035	4934.679688224774	0
0	15057	4945.982758470197	1
0	15059	4945.991269099478	2
0	15060	4947.206981040664	1
0	15065	4949.141579405474	0
0	15071	4950.34643970239	1
0	15074	4952.720086722512	0
0	15080	4955.948419187895	1
0	15082	4956.104103444504	0
0	15088	4956.67214601477	1
0	15090	4959.695427222678	0
0	15105	4965.627059217675	1
0	15110	4968.141455491247	0
0	15138	4975.134985450788	1
0	15140	4975.324435788893	2
0	15141	4975.386096407224	1
0	15146	4975.974723751149	0
0	15158	4981.028412757556	1
0	15160	4981.276054211214	2
0	15162	4981.760377593785	3
0	15166	4984.449702517085	2
0	15171	4986.336222584629	1
0	15178	4987.320919835292	2
0	15183	4989.323297066652	1
0	15190	4991.228056300063	2
0	15197	4994.487587957836	1
0	15207	4996.549004621979	2
0	15209	4997.458119705214	3
0	15211	4997.751775496611	4
0	15218	5002.279782109048	3
0	15224	5003.951077873806	4
0	15225	5004.177204552585	3
0	15230	5006.414253238904	2
0	15236	5006.710571822403	3
0	15237	5007.351540283534	2
0	15244	5012.35901438668	3
0	15246	5013.509430203892	4
0	15247	5016.920928095006	3
0	15252	5017.672774092643	2
0	15259	5020.363668239634	1
0	15266	5021.752843668999	0
0	15282	5023.568147167882	1
0	15283	5024.858772841705	0
0	15322	5033.920797432254	1
0	15324	5034.904490401395	0
0	15330	5035.789789203575	1
0	15333	5036.254167615616	2
0	15334	5036.754339454798	1
0	15340	5036.88799616532	2
0	15342	5036.898509400057	3
0	15343	5040.775966585536	2
0	15351	5042.553086095499	3
0	15353	5044.023547406632	2
0	15362	5048.98521258657	1
0	15367	5049.005163018571	0
0	15374	5050.927648710966	1
0	15378	5052.171094804242	2
0	15379	5052.510297154536	1
0	15384	5052.645994437665	0
0	15390	5055.569470106212	1
0	15396	5058.850745062119	0
0	15421	5062.033809038676	1
0	15422	5062.302843392566	0
0	15436	5068.764229899759	1
0	15437	5069.554263291739	0
0	15450	5072.751487899584	1
0	15451	5073.363141819427	0
0	15462	5074.911849976195	1
0	15466	5077.441054419545	0
0	15475	5078.678295233762	1
0	15478	5085.419740655872	0
0	15494	5093.715438394722	1
0	15499	5094.631568149635	2
0	15500	5096.541037738159	1
0	15505	5096.996160923358	0
0	15542	5109.139762091748	1
0	15545	5112.205118428877	0
0	15554	5113.574251154476	1
0	15561	5119.620654946361	0
0	15578	5123.589325555146	1
0	15579	5123.64129590263	0
0	15611	5136.631553728992	1
0	15612	5137.415052789285	0
0	15624	5137.871408684096	1
0	15626	5138.327951856057	2
0	15628	5139.42226835425	1
0	15634	5140.364939969302	0
0	15643	5142.163545050821	1
0	15644	5142.770848692016	0
0	15669	5147.074866290176	1
0	15671	5148.026340228407	2
0	15672	5149.410308158058	1
0	15679	5151.786239023576	2
0	15680	5152.899493802814	1
0	15686	5156.216303759289	0
0	15698	5160.485286481855	1
0	15701	5162.429445893431	0
0	15712	5163.369283857049	1
0	15713	5163.976158029729	0
0	15724	5169.136101299468	1
0	15727	5172.391458620662	0
0	15759	5191.351327371535	1
0	15763	5193.84855176049	2
0	15764	5195.12890971727	1
0	15770	5199.184049160785	0
0	15778	5200.179963874228	1
0	15779	5205.177080936258	0
0	15791	5208.616396197871	1
0	15792	5208.731989788438	0
0	15807	5209.799002579215	1
0	15817	5213.138866709309	2
0	15821	5214.054674343506	3
0	15826	5218.660643871038	2
0	15834	5219.622182280178	3
0	15835	5220.060927507321	2
0	15840	5220.217796709236	1
0	15846	5221.332795044054	2
0	15850	5224.899203579403	3
0	15851	5225.230668943247	2
0	15858	5226.470899704533	1
0	15864	5227.019119609547	0
0	15883	5230.264548341359	1
0	15885	5233.939469188002	0
0	15905	5239.304583214345	1
0	15906	5239.894227033503	0
0	15914	5240.797251919708	1
0	15916	5241.036317557387	2
0	15918	5242.52701808009	1
0	15926	5245.047267371338	0
0	15933	5248.619499468264	1
0	15935	5250.812706729087	2
0	15937	5253.203391969484	3
0	15938	5254.483606862631	2
0	15944	5258.42851434941	1
0	15949	5259.342111515451	0
0	15962	5261.343379124173	1
0	15963	5262.218543649075	0
0	15982	5266.774027463933	1
0	15987	5269.288849308644	0
0	15993	5270.268570400307	1
0	15995	5270.319975391781	2
0	15999	5270.894988279576	1
0	16005	5273.014754735292	0
0	16025	5278.229018921479	1
0	16029	5281.675099515128	0
0	16043	5284.846075551907	1
0	16044	5285.052503455639	0
0	16064	5291.697085455687	1
0	16068	5297.86580467386	2
0	16069	5298.607233263561	1
0	16075	5299.540052364463	2
0	16079	5304.342243900668	1
0	16084	5306.675611081865	0
0	16099	5310.051783611713	1
0	16104	5311.349288910207	2
0	16105	5316.219765453627	1
0	16112	5316.555562637423	2
0	16113	5316.774847066056	1
0	16122	5320.788785355988	0
0	16130	5321.515202652478	1
0	16132	5321.684277347818	2
0	16134	5324.073756465658	1
0	16139	5324.262156745058	0
0	16175	5339.101174806089	1
0	16176	5340.249215067979	0
0	16188	5341.563206378726	1
0	16190	5344.043684772051	0
0	16202	5349.626480633612	1
0	16203	5350.72641460259	0
0	16209	5351.551592234526	1
0	16211	5352.752262638534	0
0	16217	5352.955261067742	1
0	16222	5356.652709045099	0
0	16234	5362.164392640887	1
0	16237	5364.712120830204	0
0	16253	5366.288947825488	1
0	16254	5366.611258234801	0
0	16268	5369.140216833341	1
0	16269	5369.326042145468	0
0	16275	5369.598942039275	1
0	16276	5369.796664402728	0
0	16303	5374.133358825271	1
0	16304	5374.214308541356	0
0	16324	5383.256066427412	1
0	16328	5385.245727547802	2
0	16331	5386.007989391854	1
0	16338	5391.007108409219	0
0	16350	5393.032975862673	1
0	16352	5393.564817420192	2
0	16353	5394.71368509976	1
0	16358	5395.422283531751	0
0	16364	5396.627958112386	1
0	16365	5397.400299118253	0
0	16374	5398.657719256431	1
0	16379	5402.004938870116	0
0	16401	5411.995898426787	1
0	16402	5415.37015996912	0
0	16411	5418.948670229753	1
0	16417	5422.643980294513	0
0	16424	5423.320188209999	1
0	16427	5423.431676732366	0
0	16458	5431.414850866524	1
0	16462	5433.592157542534	0
0	16487	5448.705191548494	1
0	16488	5449.441080985981	0
0	16494	5449.90561798039	1
0	16495	5452.963482440994	0
0	16505	5455.776827564415	1
0	16507	5457.383981002281	2
0	16512	5458.18595533422	3
0	16515	5458.206154841193	4
0	16517	5458.467637807387	5
0	16518	5458.614279890567	4
0	16523	5459.280723600663	3
0	16531	5459.739860911255	4
0	16533	5460.242669988248	5
0	16535	5460.718850925606	6
0	16538	5464.327793872214	5
0	16544	5465.21050509102	6
0	16548	5467.079633647648	5
0	16554	5467.128157542625	6
0	16556	5467.250449797101	7
0	16558	5467.769627796154	6
0	16565	5468.683437154462	7
0	16569	5470.864086213222	6
0	16574	5470.90600098616	5
0	16579	5472.970205568035	4
0	16583	5475.126215763365	5
0	16585	5478.800780341359	6
0	16587	5479.532361000574	7
0	16590	5480.974357700416	6
0	16598	5484.493202285948	5
0	16605	5485.838952901649	6
0	16607	5486.059884677502	5
0	16616	5492.398347687356	6
0	16618	5494.551859628142	7
0	16619	5495.993440478428	6
0	16624	5497.94154874917	5
0	16630	5499.308060265266	4
0	16636	5500.703719981793	5
0	16638	5501.218260828681	6
0	16642	5502.510672924435	7
0	16643	5503.792716408504	6
0	16651	5506.866814894338	5
0	16658	5508.645914976114	6
0	16660	5511.357660459188	7
0	16662	5511.565077998024	8
0	16663	5514.749463614346	7
0	16669	5515.309960947231	6
0	16674	5515.845404286425	5
0	16680	5517.579353646327	6
0	16682	5518.029362272376	7
0	16683	5520.367959101447	6
0	16694	5527.093580567388	7
0	16697	5529.415935810647	6
0	16702	5529.645501614071	5
0	16711	5531.906357521668	4
0	16721	5537.72201326801	3
0	16728	5538.402177592794	4
0	16729	5539.243343066135	3
0	16738	5545.922162069705	2
0	16743	5546.310979790709	1
0	16749	5547.105838024781	2
0	16750	5548.396641177223	1
0	16757	5548.831229448549	2
0	16759	5552.971417317487	1
0	16765	5555.450739944969	2
0	16769	5558.073817855402	3
0	16771	5559.230003385724	4
0	16772	5561.722955590706	3
0	16778	5562.948954998854	2
0	16787	5564.51519370217	3
0	16788	5564.527140832888	2
0	16797	5565.645643289991	1
0	16802	5565.789491606675	0
0	16817	5574.514776850601	1
0	16818	5574.718947933166	0
0	16830	5576.324329413764	1
0	16832	5576.436839234061	2
0	16836	5581.184563171595	3
0	16837	5581.553145607138	2
0	16843	5581.9778987232	3
0	16845	5582.021363430058	4
0	16846	5582.344048346812	3
0	16851	5583.096755470064	2
0	16856	5584.270491192264	1
0	16867	5585.410357886692	0
0	16888	5591.98193926018	1
0	16889	5592.055657542423	0
0	16903	5595.784228562597	1
0	16907	5596.619522720022	2
0	16909	5598.878073476079	3
0	16910	5600.958665317081	2
0	16917	5601.499551411049	1
0	16926	5609.636806389717	0
0	16943	5614.67176902788	1
0	16945	5614.799156119692	2
0	16946	5615.514129423208	1
0	16951	5616.086516823114	0
0	16960	5618.5046345997	1
0	16966	5620.229653678294	2
0	16969	5620.570893964227	1
0	16976	5622.484461291364	0
0	17006	5628.079501219641	1
0	17009	5635.977511824277	0
0	17016	5639.580825356629	1
0	17017	5640.087494579641	0
0	17034	5647.653561551501	1
0	17035	5647.705064265103	0
0	17048	5650.967226975412	1
0	17051	5652.755785772173	0
0	17070	5659.403633549765	1
0	17074	5659.709917335521	2
0	17076	5659.741452247441	3
0	17080	5662.447942880234	4
0	17082	5663.043157778309	5
0	17084	5663.105424228982	6
0	17086	5663.310144645865	7
0	17087	5663.707826352522	6
0	17095	5667.476294953822	7
0	17101	5671.267273573366	8
0	17102	5671.549835438169	7
0	17112	5678.742558287214	6
0	17117	5678.872221882315	5
0	17123	5679.055247660637	6
0	17129	5679.843984651998	7
0	17130	5680.103175549742	6
0	17135	5681.034328019884	5
0	17140	5684.967968827699	4
0	17144	5686.579903920876	5
0	17146	5686.751189873936	6
0	17150	5688.096199316475	7
0	17153	5688.617372038639	6
0	17157	5689.002211856517	7
0	17161	5689.399637525806	8
0	17165	5693.581711490666	9
0	17166	5695.71748024303	8
0	17174	5696.715258465343	9
0	17176	5698.50264290109	10
0	17177	5699.302594795843	9
0	17184	5708.298485543711	8
0	17189	5711.176847304007	7
0	17193	5711.662337040726	8
0	17199	5713.407016805618	7
0	17205	5714.705464448512	8
0	17210	5718.147621302447	7
0	17216	5719.285158887341	8
0	17217	5719.848364166565	7
0	17227	5721.144744518418	6
0	17233	5721.248260134374	7
0	17235	5721.562037371494	6
0	17241	5723.822926643831	7
0	17243	5724.297808641102	6
0	17251	5727.121646222261	7
0	17255	5728.845008917754	8
0	17256	5729.366935584113	7
0	17265	5735.116246979797	8
0	17267	5735.11852609102	9
0	17268	5735.457457724478	8
0	17274	5736.124789838757	7
0	17280	5738.887248746595	6
0	17287	5740.75281988923	7
0	17288	5742.549335401004	6
0	17294	5743.636150702607	5
0	17299	5743.639302504066	4
0	17305	5744.291660829045	5
0	17308	5745.618738990145	4
0	17314	5746.380018175343	5
0	17316	5746.781754536113	6
0	17317	5749.556269324676	5
0	17322	5750.167776563144	4
0	17328	5751.156797284943	5
0	17329	5751.82606923037	4
0	17335	5752.321903187095	5
0	17337	5752.923181369081	6
0	17340	5754.166137211153	7
0	17342	5754.713080332275	8
0	17343	5757.20786350189	7
0	17349	5758.026877042934	6
0	17356	5758.612442221333	7
0	17359	5759.566039623078	6
0	17364	5760.35390895954	5
0	17373	5762.481887182577	4
0	17381	5764.214968820546	5
0	17382	5764.633177130944	4
0	17387	5764.959463035863	3
0	17398	5770.760115565001	2
0	17404	5771.780261789007	1
0	17411	5774.358796193439	0
0	17469	5786.024750540879	1
0	17472	5788.932614209843	0
0	17484	5796.482137878956	1
0	17485	5797.077846915113	0
0	17508	5803.379281838031	1
0	17511	5805.777828373473	0
0	17521	5806.654358647679	1
0	17524	5809.434161408172	0
0	17552	5824.488759116993	1
0	17554	5826.945325936589	2
0	17557	5829.074272074153	1
0	17563	5829.086629497186	2
0	17566	5829.991672511088	1
0	17572	5833.025994515931	0
0	17587	5837.383571455365	1
0	17588	5837.550692793759	0
0	17595	5839.211588532198	1
0	17597	5840.091677053762	0
0	17603	5840.555384131948	1
0	17606	5842.114050146946	0
0	17617	5847.123801326466	1
0	17619	5847.562260448932	2
0	17621	5848.481046883665	3
0	17624	5849.215289409248	2
0	17632	5850.087639482869	3
0	17633	5852.057242946276	2
0	17639	5854.096223446845	1
0	17646	5856.345378363912	0
0	17663	5858.65297711252	1
0	17667	5859.547042795519	2
0	17669	5859.908472956549	3
0	17670	5860.441871041946	2
0	17675	5860.448416269784	1
0	17681	5860.616009692882	2
0	17691	5867.795368250258	1
0	17698	5868.799651635041	2
0	17701	5869.920666068916	1
0	17707	5872.26603919903	0
0	17713	5873.727537978351	1
0	17715	5875.326760043737	0
0	17726	5876.381713700563	1
0	17728	5876.621761413176	2
0	17730	5877.743719039254	3
0	17731	5877.799418385182	2
0	17737	5879.388081526967	3
0	17740	5880.542210423161	2
0	17745	5880.887841227241	1
0	17750	5882.374707764344	0
0	17756	5883.053934755369	1
0	17757	5883.328828191008	0
0	17773	5887.241770288386	1
0	17774	5887.335847713498	0
0	17785	5887.38258040786	1
0	17790	5887.739455430195	2
0	17791	5888.581468947816	1
0	17796	5889.633894228058	0
0	17800	5890.513491410107	1
0	17803	5894.954639881286	0
0	17823	5902.860248944964	1
0	17824	5903.095603416778	0
0	17833	5904.748913322033	1
[...]
5	79335	25887.754872683021	6580.2914478538
5	79379	25902.944584562406	6579.5026839738
5	79400	25908.487894783473	6572.7755870426
5	79481	25938.266576692297	6601.5471115662
5	79494	25942.617514611955	6605.1065350177
5	79501	25952.793743782423	6600.6339012691
5	79528	25960.435503244461	6606.7577534482
5	79533	25963.716505684794	6606.0779707834
5	79550	25975.663381610265	6613.4352726625
5	80039	26130.992437281652	6759.4678041667
5	80078	26137.768259998523	6763.9503614682
5	80087	26138.145397158862	6762.6507752131
5	80094	26140.224855195902	6764.4912777498
5	80105	26144.412835262306	6765.6152888859
5	80119	26150.388388411347	6763.7974258636
5	80212	26181.560748049267	6785.7347118029
5	80222	26183.307864018284	6785.9537762671
5	80228	26186.02093858917	6770.1244377556
5	80235	26187.753200397979	6770.1877399777
5	80289	26207.758203415919	6789.844962232
5	80302	26212.991861720955	6786.3384671536
5	80494	26275.649951059445	6846.1016014853
5	80503	26279.306104627259	6848.1235754228
5	80514	26280.241688021218	6842.2787170494
5	80519	26280.860424927295	6833.0358328044
5	80526	26282.813682173544	6831.751824866
5	80541	26291.644966665084	6821.160362151
5	80659	26328.073285691021	6853.3033789113
5	80692	26347.729679220575	6863.4419250671
5	80729	26362.439911585487	6872.3416997258
5	80772	26373.669535840596	6879.8938053953
5	80822	26382.545679327261	6884.6638245328
5	80861	26393.495799355395	6891.4726617551
5	80868	26395.521409455709	6888.1090473224
5	80880	26398.810550432785	6888.1899676854
5	80889	26401.545318171161	6868.4785841877
5	80918	26412.101307788636	6871.8896477509
5	80924	26416.247268681726	6868.9232556424
5	80932	26420.479969144581	6871.7635255956
5	80946	26423.645808932663	6874.9031277501
5	80957	26426.861084625873	6877.8396065566
5	81009	26448.707099642446	6894.90680759
5	81021	26453.909158086667	6895.3379500126
5	81061	26469.127275660743	6884.6351239776
5	81129	26487.903775132874	6896.5676506893
5	81134	26488.043216459952	6883.9391200005
5	81141	26489.042152804411	6883.6229928054
5	81171	26499.9589880628	6893.9738987792
5	81241	26519.080309586085	6909.8307381916
5	81248	26520.585756174646	6903.1508125506
5	81261	26527.786672386037	6905.6770001038
5	81269	26528.594018018303	6905.3873944205
5	81282	26533.888673156256	6910.1423150094
5	81295	26538.290838820504	6909.4245042974
5	81454	26585.609832495518	6951.1253771721
5	81459	26586.087192940768	6945.9288786668
5	81467	26586.774156825366	6936.3536558401
5	81476	26589.206906742787	6936.1404138103
5	81482	26590.885249642864	6932.9553290935
5	81490	26593.756185444083	6934.7527028581
5	81497	26596.019438930694	6917.4654334576
5	81506	26598.479501595284	6918.6526025225
5	81530	26609.316320047898	6928.8080692033
5	81543	26613.416699454384	6932.6648346261
5	81560	26621.990870449636	6939.5804548661
5	81573	26624.910075542256	6940.5264896269
5	81587	26628.22015265254	6930.1531082284
5	81607	26634.297833850989	6931.7078357356
5	81613	26637.833907984597	6928.3199831924
5	81618	26639.663266122984	6917.6645419308
5	81633	26650.23601623823	6922.5627190236
5	81673	26666.847990637528	6919.9507715519
5	81680	26667.939875470201	6919.0579361055
5	81685	26668.139487990532	6918.4910940728
5	81690	26668.564314509294	6910.1081891963
5	81708	26676.648358907807	6910.4789901313
5	81745	26691.692124098878	6914.4054697355
5	81750	26694.200788918088	6906.8545625503
5	81755	26694.716972125621	6906.3058317305
5	81768	26698.614879690055	6875.9759755913
5	81791	26704.390817585765	6874.317971843
5	81806	26710.402363982091	6878.096382238
5	81839	26722.845833663573	6886.7590341791
5	81854	26726.531300044166	6888.9707076344
5	81859	26727.071835909477	6887.9725228363
5	81876	26738.186422244327	6898.5397385113
5	81881	26739.448532781496	6887.769705348
5	81892	26748.991454504236	6896.6827588407
5	82067	26800.977610595432	6935.5755709878
5	82078	26801.560271555956	6933.6449108115
5	82085	26805.793893488211	6937.8256011809
5	82096	26808.09876867881	6939.1003349831
5	82107	26811.605857456146	6939.3299247682
5	82122	26814.400227839954	6941.8130185626
5	82140	26821.818180412021	6935.2690042269
5	82295	26866.121617423936	6978.5661937951
5	82301	26868.027392301124	6979.9506697318
5	82310	26870.891345048311	6974.0613322787
5	82318	26874.083754324565	6974.7863096373
5	82338	26877.123563802019	6972.9567959475
5	82344	26878.204276616182	6964.3092668555
5	82355	26885.773390905783	6971.3224588257
5	82378	26906.579113766323	6990.4950522826
5	82413	26914.598231691649	6989.4694703594
5	82424	26918.561336749932	6991.7473055716
5	82449	26925.351302430196	6997.0296967968
5	82460	26930.729424991022	6988.075145261
5	82471	26937.360502577079	6976.1430352442
5	82480	26939.275599479438	6976.7113368268
5	82495	26948.737809761718	6963.0061868182
5	82534	26957.378139913146	6965.3754308193
5	82541	26961.353151511785	6963.837884234
5	82577	26972.777084506519	6960.6158819385
5	82734	27029.396424576974	6995.084597944
5	82740	27031.265476845593	6979.9958742637
5	82745	27031.792420159206	6977.364062044
5	82752	27033.439119805263	6977.7785262897
5	82759	27036.484917400243	6970.9139329679
5	82787	27051.495869109983	6984.3738481215
5	82878	27077.646160274366	7007.0734109747
5	82883	27078.014700598158	7003.8261768014
5	82888	27078.795976229587	7004.4678050599
5	82897	27081.700547448822	6992.6931714603
5	82906	27084.823045485983	6991.6730775842
5	82924	27090.235558836792	6991.1588914881
5	82934	27094.125293342595	6990.6850850852
5	82981	27117.47042333281	7004.2299723979
5	83132	27160.232717197868	7042.9858485458
5	83138	27160.947513982865	7037.4975334736
5	83145	27161.326087939331	7029.7874815897
5	83150	27161.809324275728	7020.1014096911
5	83158	27163.024427131672	7006.7445706611
5	83179	27168.263259255241	7004.5536793628
5	83186	27170.716896120269	7004.600542629
5	83196	27171.804636625821	7004.4870961634
5	83203	27173.788065324656	7001.3901770871
5	83208	27174.823520305084	6999.5510702281
5	83220	27177.049433291555	6989.0841505151
5	83341	27226.449688145385	7028.2852407601
5	83348	27226.824056236518	7025.7840011911
5	83357	27228.938976153475	7025.9700900349
5	83384	27232.122830448382	7011.9023481452
5	83424	27236.201839158013	7009.9403486715
5	83547	27269.658530843011	7023.6928119312
5	83576	27282.015306812843	7027.525824865
5	83601	27289.558898451675	7012.3215832373
5	83619	27293.243932925219	7012.1138478525
5	83624	27293.781182025534	7000.7562719299
5	83629	27293.984163781122	6996.9752830655
5	83636	27296.817003580525	6991.9886226639
5	83656	27300.663513036799	6973.5270854711
5	83673	27307.673383876437	6976.4792418061
5	84163	27477.684418727057	7139.4428456474
5	84168	27477.86554133595	7132.110814767
5	84173	27478.852289084928	7131.075398606
5	84180	27483.22966754047	7130.1519608662
5	84190	27488.999447990281	7131.2463900969
5	84222	27497.353858184518	7122.5361250025
5	84310	27524.797819175234	7148.4454739699
5	84315	27525.162589634069	7146.6769903267
5	84322	27525.987381360164	7145.7372693477
5	84329	27526.548351462119	7144.0803370225
5	84342	27531.045165289547	7147.7946266149
5	84347	27532.271356344527	7148.4866612229
5	84352	27535.438138358042	7151.2548617324
5	84361	27538.851754814833	7135.4508383876
5	84420	27550.903992618655	7144.7399270977
5	84427	27551.495101376566	7139.5656008686
5	84449	27560.425851304413	7139.1037835343
5	84465	27565.201732292424	7131.8756789569
5	84476	27566.255718252462	7131.8600401141
5	84481	27566.886959470328	7130.8766934432
5	84486	27568.898014688112	7131.0430661714
5	84491	27573.510056123197	7111.8971841742
5	84498	27576.399684448238	7114.7240886413
5	84523	27582.182415728688	7114.4760412417
5	84530	27584.054987294259	7115.8643264088
5	84540	27588.083962664797	7112.2202420905
5	84566	27595.999474144985	7102.784574005
5	84580	27602.403984299589	7108.6607348954
5	84600	27605.201115166568	7108.7404832352
5	84611	27608.754832295657	7110.7721858601
5	84630	27613.033168450371	7106.3025489905
5	84635	27614.37606161965	7100.9385099768
5	84641	27615.419212692334	7093.136872562
5	84656	27621.429357163798	7097.7991138866
5	84675	27624.669841271433	7097.5097108057
5	84681	27625.576172312658	7098.1168891681
5	84686	27629.277110837544	7099.3473326185
5	84693	27630.784100782628	7083.045555619
5	84743	27648.306236818338	7084.5291400598
5	84757	27656.577850719154	7089.6510595443
5	84795	27673.255250944077	7103.6021958312
5	84822	27677.632475814698	7102.9094060175
5	84829	27681.458082205768	7102.195391417
5	84836	27686.566395298727	7100.315714715
5	84845	27690.012574827545	7079.6826025544
5	84874	27700.788858183713	7087.9973534467
5	84943	27721.817388520923	7103.5826276663
5	84948	27722.550334486874	7092.4067820037
5	84956	27724.544035194399	7090.7090215986
5	84961	27726.111283223382	7091.1237857504
5	84971	27729.361542860733	7080.4235373624
5	85031	27744.234271210668	7081.9393682533
5	85039	27745.395432857652	7077.8477254535
5	85051	27753.91707347981	7081.2808165909
5	85056	27753.939019531873	7074.4034761787
5	85065	27758.45749876396	7049.6479550356
5	85088	27761.077634131485	7046.4358442024
5	85112	27770.750334453759	7052.9661259919
5	85119	27772.781570318501	7054.4188408798
5	85126	27775.982066838311	7056.2111359406
5	85153	27783.330073083939	7054.8659496608
5	85288	27825.365270336113	7087.3593423665
5	85298	27830.337645202369	7090.4710504284
5	85310	27832.462531992319	7083.9678962473
5	85324	27838.019040943158	7087.013777576
5	85336	27843.394236519564	7086.8409144682
5	85357	27850.178058864704	7092.4007571679
5	85413	27861.438447918024	7100.5416288523
5	85432	27864.50018397046	7094.7658358022
5	85472	27875.156414464803	7101.8661199974
5	85479	27876.54087965597	7100.4775631492
5	85486	27877.712319040428	7095.7776690649
5	85497	27885.649944055726	7099.3590756104
5	85663	27933.793677218763	7122.8100351929
5	85671	27936.305515550676	7123.515081903
5	85676	27939.77612747647	7126.3960878061
5	85689	27946.64984963777	7128.7005518568
5	85699	27948.16158589789	7127.3883196148
5	85716	27960.097476803033	7125.7550392845
5	85800	27983.37314238562	7147.3411971806
5	85811	27988.10177670638	7143.8678699442
5	85849	27995.953070007395	7139.5334581249
5	85868	28003.764836371113	7143.066502378
5	85873	28006.863713810889	7142.9500354147
5	85890	28014.837024093514	7148.8013232644
5	86017	28057.373805317827	7190.0137894854
5	86022	28058.871721616118	7180.7043662962
5	86027	28058.874524922921	7152.5386148182
5	86032	28059.868414366773	7151.7078514897
5	86039	28060.711152425322	7151.0232321086
5	86046	28063.683212636239	7148.9574604764
5	86063	28070.693760907571	7139.348466602
5	86165	28101.016771225154	7165.8081578116
5	86172	28101.470591296521	7165.9232751248
5	86183	28107.954643897164	7169.4900060118
5	86200	28121.163917289411	7173.909473678
5	86238	28135.953881754427	7184.6621414601
5	86291	28164.081976776678	7205.1740123358
5	86300	28169.172897010003	7190.2867408147
5	86305	28170.473681745995	7190.8334133089
5	86316	28175.089655899513	7195.306492159
5	86355	28190.332003986687	7210.5333397476
5	86380	28195.782963042029	7211.0578508436
5	86398	28204.132743065087	7214.0577107487
5	86491	28233.569656791498	7234.6244393514
5	86587	28265.396149027338	7263.4009344224
5	86594	28267.141077978636	7257.8910934085
5	86606	28270.516207743098	7261.2616226478
5	86611	28270.574419564649	7261.0351729225
5	86616	28270.847828811116	7241.2923779122
5	86621	28273.622510213341	7242.3152570191
5	86632	28280.798978572295	7246.2332776062
5	86653	28284.980034517678	7242.2389314725
5	86664	28289.901850124037	7240.8143247248
5	86759	28311.226185338346	7255.9085894614
5	86954	28381.178516757532	7322.354574153
5	86959	28382.032499302333	7319.8847237992
5	86964	28384.361507458679	7318.8377729227
5	86969	28384.552489180521	7318.6681659686
5	86974	28386.131588210574	7311.3664867438
5	86983	28389.248737293308	7303.3870348176
5	87005	28393.128551528359	7298.3607553746
5	87010	28393.473869042861	7296.8095695669
5	87028	28403.109388844093	7304.1813246545
5	87078	28420.599865509323	7316.1431600515
5	87083	28420.836848744242	7315.5291500299
5	87093	28423.444286728577	7315.2979485062
5	87106	28426.096411500706	7307.2370051502
5	87159	28442.40818518387	7311.2580302584
5	87164	28443.48901157733	7311.4231250672
5	87173	28445.735951584371	7311.892944055
5	87184	28451.980363585076	7315.5545023453
5	87191	28454.012278446624	7309.7104955625
5	87210	28465.165953377048	7305.3483218487
5	87237	28469.885945821931	7292.1165665341
5	87263	28479.399851677577	7298.9799945202
5	87278	28485.351482131956	7303.0574757739
5	87291	28488.672400196096	7303.4274080241
5	87301	28491.291475103469	7304.5001497518
5	87306	28491.721838243657	7303.8259818262
5	87315	28496.654800677287	7298.4128603311
5	87326	28500.050855386611	7300.8318659842
5	87332	28505.021388188982	7304.0575034389
5	87341	28507.149110420665	7288.8426921545
5	87382	28520.524372705276	7301.4486834618
5	87431	28539.438356788606	7310.0210092917
5	87440	28541.584435271569	7308.0324278983
5	87446	28542.113232070377	7298.6158645982
5	87460	28549.300042055751	7289.1476229447
5	87592	28591.668369930586	7323.3564332432
5	87612	28594.709547066994	7320.1839714546
5	87621	28597.316529201753	7322.3255387119
5	87637	28600.492055940647	7306.6014785628
5	87677	28611.170865138072	7310.588897093
5	87706	28619.063805916386	7313.8576532608
5	87711	28619.130391438406	7286.6640811898
5	87723	28626.376368249278	7293.793429076
5	87746	28630.414847311986	7296.3779381555
5	87756	28631.264536316974	7294.5529978363
5	87764	28635.198741241616	7291.1460948968
5	87782	28640.668939225961	7293.9405787321
5	87787	28640.973605540086	7290.8949723354
5	87792	28642.551070758603	7285.0811188135
5	87802	28646.326824066874	7282.7437263063
5	87843	28657.293607842023	7292.6230180507
5	88025	28732.434043357286	7359.8752403399
5	88034	28737.033632588811	7363.5412348369
5	88046	28740.860986372569	7364.6428421188
5	88051	28743.094050145677	7361.846411849
5	88059	28744.402740997506	7362.9364800657
5	88064	28744.937956864893	7359.664068616
5	88069	28745.877713652309	7358.4005628046
5	88078	28749.876353920146	7360.8589495085
5	88093	28757.951685392945	7356.4136835489
5	88136	28773.03468096843	7359.8595104973
5	88145	28775.038547871918	7355.3923033678
5	88177	28781.343238860994	7357.333943805
5	88212	28793.906760887252	7363.7209825208
5	88217	28795.527718180139	7347.9116714755
5	88222	28800.020749423059	7350.342907609
5	88229	28805.365494530851	7352.3071073477
5	88241	28809.856375276766	7351.5562412402
5	88248	28813.441396761313	7334.8831963596
5	88258	28820.420496837343	7336.4533843347
5	88268	28823.057323432053	7329.9324908013
5	88277	28825.537722335267	7324.6493149241
5	88292	28828.404893786871	7326.4012065883
5	88297	28831.186566407797	7328.8587160739
5	88306	28838.891450724386	7311.0122853478
5	88335	28853.330057881821	7309.8443265022
5	88393	28869.704497567995	7325.3987234958
5	88411	28874.814609824477	7295.5049414522
5	88848	29023.515841444239	7439.9693777564
5	88869	29030.715670898816	7445.5238146382
5	88875	29032.388635505367	7444.4972204745
5	88884	29040.596566298206	7451.2743416734
5	88904	29044.484177118772	7454.4865815387
5	88913	29047.691903347283	7450.7641608944
5	88928	29053.9967821913	7446.141298718
5	89058	29097.746483147816	7485.7201172188
5	89066	29099.450259885081	7475.6853775297
5	89071	29104.233570537185	7477.3926809233
5	89085	29106.965867649585	7473.8507402612
5	89107	29109.715611455639	7474.2254137856
5	89117	29114.609458980062	7478.4917269964
5	89131	29118.776597239022	7469.0409628524
5	89136	29123.186874742166	7472.7075230943
5	89143	29125.538024089024	7470.6579182219
5	89154	29127.685570074922	7445.4852891039
5	89160	29128.87570715502	7438.1057438694
5	89165	29130.353237483836	7433.9849229752
5	89177	29133.72011095896	7432.0423293683
5	89204	29147.820232417368	7441.1553233843
5	89216	29153.062006579993	7440.4858665365
5	89225	29155.171664165292	7440.049247886
5	89273	29170.446404811529	7444.3919268249
5	89294	29175.441912764643	7448.6537282267
5	89326	29184.867339080997	7447.1988513096
5	89377	29198.777503965667	7459.1378369715
5	89390	29202.827527073793	7452.989319929
5	89402	29204.769799974996	7444.1842382067
5	89407	29205.786363523457	7433.0421043621
5	89416	29209.438715006808	7422.8790494233
5	89427	29213.140773863607	7408.33314521
5	89438	29216.654957984673	7411.3214964296
5	89451	29220.206153561124	7403.6494827837
5	89464	29224.270179032899	7406.6824968671
5	89474	29228.572649269061	7408.5141084256
5	89494	29241.375507467049	7419.4478168635
5	89521	29248.588480780409	7425.2356855391
5	89559	29257.037395234396	7426.360876248
5	89567	29258.437267055284	7425.6063770102
5	89598	29265.690707481461	7429.9123001377
5	89610	29271.93037894609	7429.2817068932
5	89986	29394.977008312758	7548.360207833
5	89991	29396.087038863083	7542.6742448307
5	89998	29396.174253991197	7542.7280478198
5	90027	29401.250659701547	7541.4438423813
5	90036	29403.078073494588	7531.1068762682
5	90047	29406.608692320339	7534.0272426043
5	90056	29407.843706846472	7525.5050839809
5	90072	29411.625035835727	7528.8006459291
5	90077	29411.971940751915	7505.6647936136
5	90082	29412.918819015384	7505.2011193947
5	90091	29416.317595965089	7508.5147162717
5	90109	29418.491673879212	7502.3157319935
5	90116	29421.729164057665	7504.141481912
5	90122	29428.982964809256	7505.4759684597
5	90127	29429.24836170804	7503.2465315137
5	90136	29431.854842709368	7489.763140083
5	90149	29433.876786911976	7486.8766993431
5	90156	29435.181242318726	7468.2099130067
5	90202	29453.314909761609	7485.301795738
5	90207	29453.372581638972	7471.0841803155
5	90218	29461.264355034681	7467.0899841828
5	90302	29490.162561250396	7492.8460362146
5	90314	29490.912789855992	7492.5961157379
5	90322	29492.235176252784	7480.6946278839
5	90327	29493.864720122825	7479.0241987008
5	90338	29498.798753002908	7482.9814214549
5	90362	29507.409820086189	7482.5692121816
5	90377	29508.814894014887	7480.5320582899
5	90382	29510.27236783376	7473.6701282411
5	90387	29511.942127306055	7468.122859746
5	90402	29516.028613728191	7471.7606728637
5	90417	29523.156516125865	7473.4890795659
5	90476	29542.573579022584	7484.3497864022
5	90491	29552.078837633621	7493.6181185583
5	90508	29559.822319346108	7494.9458962997
5	90532	29564.518214843258	7497.0041847274
5	90551	29576.25214064733	7501.1810569751
5	90574	29582.691463145438	7501.7296534536
5	90666	29611.824841127921	7528.9582695733
5	90685	29618.218315567805	7517.5073686006
5	90847	29661.887886500251	7559.2777903089
5	90858	29665.12466205451	7559.7889053011
5	90874	29670.858378528255	7564.7694386988
5	90979	29713.344791420492	7604.7309117399
5	90984	29713.815574722594	7594.47798203
5	91003	29720.081081134291	7592.8564504938
5	91107	29751.347294660308	7623.5364404353
5	91117	29752.745392436077	7620.7969946758
5	91126	29754.69624179792	7615.1471650511
5	91145	29766.979270366371	7626.0232843564
5	91167	29779.072949554039	7627.6015439273
5	91207	29787.878383206249	7624.2700244509
5	91214	29788.775634708845	7624.0642194908
5	91221	29789.7311375335	7623.5553745071
5	91226	29789.868688293022	7622.2666122213
5	91231	29792.662497772475	7624.4127228578
5	91241	29797.915784491161	7626.8644491065
5	91258	29806.250037009036	7622.0327275705
5	91275	29808.186520041978	7622.7447585178
5	91286	29814.318209130455	7625.8719259373
5	91375	29838.124960765072	7648.7771416339
5	91391	29845.822701809029	7654.8709385213
5	91427	29859.091436953538	7665.7676369905
5	91432	29859.176091124062	7653.7409557423
5	91440	29859.885323076538	7635.1368295131
5	91459	29865.876749538517	7638.2280259964
5	91535	29894.16470106768	7663.9161639142
5	91541	29894.305828796732	7660.796016043
5	91552	29897.14539672122	7648.926124644
5	91666	29938.588319236163	7675.4115714934
5	91673	29940.722652426367	7667.0472220166
5	91678	29941.138730049359	7665.1059860329
5	91685	29943.924705519145	7664.665748667
5	91721	29956.299114701354	7669.4281161656
5	91733	29960.307104020689	7671.3369726171
5	91747	29963.75067194051	7673.9989265118
5	91797	29972.87955205712	7675.6077270709
5	91816	29983.420568330763	7684.2643534008
5	91834	29992.233150475416	7689.6053573754
5	91841	29994.437060172344	7685.1705637981
5	91848	29995.064236230762	7684.4308562098

