version 2
run Third-n4-19-20191016-14:54:06-7812
attr configname Third-n4
attr datetime 20191016-14:54:06
attr experiment Third-n4
attr inifile omnetpp.ini
attr iterationvars ""
attr iterationvarsf ""
attr measurement ""
attr network org.omnetpp.queueing.Pizza
attr processid 7812
attr repetition 19
attr replication ""
attr resultdir results
attr runnumber 19
attr seedset 19
param **.PS.maxInventoriedPS 4
param **.U1.interArrivalTime exponential(4s)
param **.U2.interArrivalTime exponential(6s)
param **.PS.serviceTimeForInventoryU1 exponential(1.4s)
param **.PS.serviceTimeForInventoryU2 exponential(1.4s)
param **.PS.serviceTimeDirectU1 exponential(1.8s)
param **.PS.serviceTimeDirectU2 exponential(1.8s)
param **.PS.probabilityProducing 0.8
param **.CS.serviceTimeU1 exponential(2.3s)
param **.CS.serviceTimeU2 exponential(2.3s)

vector 0 Pizza.EntryQueueU1 queueLength:vector ETV
attr interpolationmode sample-hold
attr title "queue length, vector"
vector 1 Pizza.CS queueLength:vector ETV
attr interpolationmode sample-hold
attr title "queue length, vector"
vector 2 Pizza.EntryQueueU2 queueLength:vector ETV
attr interpolationmode sample-hold
attr title "queue length, vector"
vector 3 Pizza.sink lifeTime:vector ETV
attr interpolationmode none
attr title "lifetime of arrived jobs, vector"
attr unit s
vector 4 Pizza.sink lifeTimeU2:vector ETV
attr interpolationmode none
attr title "lifetime of arrived jobs, vector"
attr unit s
0	0	0	0
0	29	10.178522957092	1
0	30	10.488162937289	0
0	36	10.661438728319	1
0	38	11.321448760572	2
0	40	12.581049784634	1
0	45	13.041748433697	0
0	63	19.394583141677	1
0	67	20.013696956067	2
0	69	21.264239015241	3
0	71	22.881134492003	4
0	74	27.867316135374	3
0	80	28.428811034516	4
0	82	30.709483926355	3
0	89	33.678959886788	2
0	96	34.467792361472	3
0	97	34.768987760488	2
0	105	35.704934765134	1
0	111	36.873113237042	0
0	122	37.590748461976	1
0	123	37.793417277916	0
0	145	42.987029335517	1
0	151	47.145451403671	2
0	152	48.811473086949	1
0	158	54.203886293147	0
0	201	72.791119459694	1
0	203	72.799213348393	2
0	205	73.358668753642	3
0	208	73.576570886149	2
0	214	73.834346662125	3
0	218	75.086903620639	4
0	219	75.592568188692	3
0	229	80.368125902448	2
0	236	81.54665914149	1
0	241	81.674138772884	0
0	250	83.477821722529	1
0	251	84.39397188198	0
0	269	88.05047558859	1
0	271	88.377863308688	2
0	272	88.45372958521	1
0	277	89.233442121242	0
0	326	112.526171867291	1
0	333	115.30547874454	0
0	340	118.097534743751	1
0	342	120.136946279212	0
0	349	123.07595623204	1
0	351	123.399441777415	2
0	352	124.68551492549	1
0	364	125.992933386125	2
0	365	128.802745744082	1
0	370	128.936641398865	0
0	381	130.380527348192	1
0	383	130.811940393631	0
0	407	140.876759200915	1
0	408	141.517221846913	0
0	451	154.344918324289	1
0	452	160.828582646881	0
0	474	165.007230253423	1
0	475	167.34826737872	0
0	496	172.814337575013	1
0	500	175.782613355913	0
0	534	190.972784067813	1
0	537	192.21946297425	0
0	552	198.965475795353	1
0	553	199.420435878442	0
0	560	201.179036774331	1
0	561	202.538077542342	0
0	567	202.891142836804	1
0	568	203.757915040189	0
0	574	203.916798062624	1
0	575	203.956406838957	0
0	583	204.931759354917	1
0	585	207.216864271003	0
0	605	216.035054372582	1
0	607	216.890859767769	2
0	610	217.490301880872	1
0	616	217.497353773625	2
0	617	218.83900701253	1
0	625	220.778183741846	0
0	634	221.860942496614	1
0	635	222.384778562307	0
0	642	223.943388638037	1
0	646	228.824838298225	0
0	655	230.222740341267	1
0	656	230.325993830982	0
0	668	233.906004266344	1
0	673	237.497456854228	0
0	695	246.542885632596	1
0	700	249.419958524092	0
0	715	251.982251659615	1
0	717	252.244521486343	2
0	720	253.329179626499	1
0	730	257.003133356504	0
0	752	263.549887485569	1
0	755	264.938112386345	0
0	773	268.644135763977	1
0	775	269.048253009344	0
0	803	276.391223889577	1
0	807	277.47889092334	2
0	809	278.224574224251	3
0	811	279.394416614379	4
0	812	279.670419834777	3
0	822	284.157688572401	2
0	829	284.979061522538	3
0	830	285.59279463705	2
0	835	285.97535168495	1
0	844	289.376239057857	0
0	856	293.049864501794	1
0	858	293.494472142307	2
0	860	298.513672327773	3
0	862	299.344458747488	4
0	864	299.408000074179	5
0	866	301.672830775576	6
0	867	303.138362388923	5
0	873	304.640985240596	4
0	879	305.582391073456	3
0	885	305.671870311016	4
0	889	308.231883807717	3
0	896	311.997927200016	4
0	897	312.384318766633	3
0	902	312.567549832059	2
0	910	315.905678229214	1
0	915	316.089543517986	0
0	921	316.458589302948	1
0	926	317.321324104579	0
0	945	319.164323378895	1
0	946	323.377403766279	0
0	966	331.733859767314	1
0	967	331.922118751224	0
0	973	332.310988745482	1
0	975	334.491996817378	0
0	984	336.048311952984	1
0	989	336.659290012663	2
0	990	337.535540512549	1
0	995	337.550643093892	0
0	1009	342.08804728035	1
0	1012	342.369399431214	0
0	1019	342.712868953693	1
0	1021	349.08073016238	0
0	1039	361.046192429848	1
0	1040	362.575945052939	0
0	1047	364.693484452858	1
0	1048	365.073418124515	0
0	1054	365.528448640313	1
0	1056	365.873997506255	0
0	1063	366.376979280463	1
0	1064	367.888634360684	0
0	1070	368.234300017071	1
0	1072	369.469746506983	0
0	1098	380.995419275246	1
0	1099	382.146383339144	0
0	1105	384.012590856639	1
0	1107	384.690484080857	2
0	1111	385.35691378099	3
0	1112	385.576826133721	2
0	1117	385.713544005717	1
0	1125	390.277538611916	0
0	1134	394.100865110871	1
0	1137	395.041449470855	0
0	1184	414.651667504798	1
0	1187	417.242907084144	0
0	1213	432.525136936308	1
0	1216	434.750690494707	0
0	1223	435.683439370877	1
0	1224	436.140112819557	0
0	1245	442.510025619343	1
0	1246	443.08002686257	0
0	1253	444.091088519351	1
0	1254	444.51317374252	0
0	1289	458.925592635738	1
0	1291	460.940718353953	2
0	1292	462.316626763203	1
0	1297	462.622300231485	0
0	1306	464.680724700582	1
0	1307	465.832128618644	0
0	1320	471.475740119458	1
0	1321	473.347697511984	0
0	1330	475.402126167093	1
0	1334	476.939796787404	0
0	1356	482.852631257353	1
0	1357	482.900242550068	0
0	1363	482.97497875745	1
0	1366	484.186616756434	2
0	1368	484.495357614544	1
0	1373	485.220124367146	0
0	1379	485.513025986117	1
0	1383	487.407589850579	0
0	1395	489.342149859577	1
0	1397	489.501583873092	2
0	1398	490.944966470435	1
0	1404	493.561481099636	0
0	1415	495.560487193889	1
0	1417	495.924013702005	2
0	1421	497.768080962079	1
0	1427	497.853945362504	2
0	1429	498.393919373752	3
0	1430	499.185235156561	2
0	1435	499.204152899052	1
0	1441	499.285570704994	2
0	1444	501.254156632507	1
0	1454	509.028486064445	0
0	1460	509.314099105628	1
0	1461	509.729199919948	0
0	1475	511.902548717783	1
0	1476	516.142264237849	0
0	1488	516.814688520094	1
0	1489	517.232404374321	0
0	1522	528.048806587277	1
0	1523	529.431111253294	0
0	1546	531.830717322431	1
0	1552	532.997041860255	2
0	1554	534.60856867975	3
0	1555	534.922559875982	2
0	1562	536.210921291724	1
0	1567	536.993921677735	0
0	1578	539.393152899285	1
0	1581	542.3439647367	0
0	1617	552.965388992664	1
0	1620	555.064015680184	2
0	1624	557.277619063121	3
0	1625	559.311875016696	2
0	1633	564.989650352334	1
0	1641	566.778700116126	0
0	1647	567.003870397375	1
0	1649	567.40253628236	2
0	1651	567.774764859559	1
0	1657	567.965773795315	2
0	1658	568.084331024644	1
0	1670	573.717316040868	0
0	1676	573.785997250113	1
0	1677	574.356701118807	0
0	1684	574.591236116887	1
0	1685	575.449786116088	0
0	1697	576.779843070306	1
0	1700	577.420946517014	2
0	1702	577.719420002021	1
0	1707	578.652100998165	0
0	1749	587.144749274938	1
0	1751	587.739820694294	2
0	1755	589.977616941188	1
0	1762	591.890361303886	2
0	1763	592.727890188141	1
0	1768	593.640519019857	0
0	1815	608.433716778007	1
0	1818	612.459617517657	0
0	1837	615.459229433133	1
0	1839	616.361000386615	2
0	1847	626.823409306554	1
0	1853	628.894383859344	0
0	1859	631.332141568543	1
0	1860	631.996748642637	0
0	1866	632.583733582372	1
0	1868	633.008302087179	0
0	1879	637.24758994424	1
0	1882	641.490278578651	0
0	1898	644.468085929051	1
0	1899	644.976576946966	0
0	1905	647.221146008744	1
0	1908	649.961213599882	2
0	1911	653.75716817201	1
0	1916	655.596464199813	0
0	1942	662.455086419971	1
0	1946	663.464107639047	2
0	1948	663.970821262754	3
0	1949	664.007055773345	2
0	1955	666.669082341508	1
0	1960	666.862242148399	0
0	2009	696.026532640286	1
0	2010	696.047121774042	0
0	2017	696.503617807977	1
0	2018	700.581925402054	0
0	2037	707.85338520963	1
0	2038	709.094477689545	0
0	2051	711.938701988558	1
0	2053	712.391774066968	2
0	2054	712.794860270354	1
0	2060	712.954527909	0
0	2066	713.11785205909	1
0	2069	714.37605023512	2
0	2071	716.221812361648	3
0	2072	716.399464130845	2
0	2077	717.348545552529	1
0	2082	718.187841273252	0
0	2098	721.97811820819	1
0	2100	723.790260601298	2
0	2102	723.836223642388	3
0	2111	727.149861419513	2
0	2116	729.27552465469	1
0	2128	734.101058797988	2
0	2131	739.885106086341	1
0	2136	741.346118423867	0
0	2142	741.738031679071	1
0	2144	743.337765049201	2
0	2150	749.125411574667	1
0	2155	750.126644959832	0
0	2172	753.003952144879	1
0	2173	753.188458637306	0
0	2196	761.631274338216	1
0	2199	761.906551841297	0
0	2209	765.85202575797	1
0	2215	767.341704052895	2
0	2218	769.606734670774	1
0	2226	770.545270929525	2
0	2230	772.573898188839	1
0	2237	774.38997918683	2
0	2238	778.846467027546	1
0	2244	779.241992778477	2
0	2252	788.441767286206	1
0	2258	788.811479653262	2
0	2259	789.368837261795	1
0	2264	789.45035890355	0
0	2298	797.467911038278	1
0	2300	800.135575606352	0
0	2310	803.64433229334	1
0	2312	806.924665516784	0
0	2319	808.209559864326	1
0	2325	815.675722182775	2
0	2326	816.141888590616	1
0	2335	817.905780386195	2
0	2336	818.973350519087	1
0	2341	819.521910394178	0
0	2348	819.997556992771	1
0	2351	821.71739663932	0
0	2366	824.823717891079	1
0	2367	827.879248668123	0
0	2387	832.662300925255	1
0	2388	836.750322834322	0
0	2401	839.810853994897	1
0	2404	841.177901262943	0
0	2444	854.73085982738	1
0	2446	855.586630846075	2
0	2450	856.92183176267	3
0	2454	858.296685469727	4
0	2455	858.42770346343	3
0	2460	858.490114636237	2
0	2468	859.449805563236	3
0	2471	860.982884904151	2
0	2476	861.001861351097	1
0	2481	861.84996098388	0
0	2490	863.873641482936	1
0	2494	866.278909119955	2
0	2495	866.731037694714	1
0	2504	870.725267174523	2
0	2506	870.867078312587	3
0	2507	871.051774094188	2
0	2513	871.310956533415	3
0	2515	871.672076896411	4
0	2516	872.227001683152	3
0	2522	873.458232169241	4
0	2524	874.755769252997	3
0	2529	876.59510253849	2
0	2534	876.952496696969	1
0	2545	882.247340814938	2
0	2547	883.25472552976	3
0	2552	886.091520310215	2
0	2558	887.643582472611	1
0	2564	889.13531684913	0
0	2576	890.042020005713	1
0	2578	892.39058080604	0
0	2584	892.60463249158	1
0	2585	894.836944968999	0
0	2600	897.507746800641	1
0	2604	901.220187845114	0
0	2636	914.437894593911	1
0	2643	920.718457689463	0
0	2649	921.298732321219	1
0	2651	922.019883685629	2
0	2653	923.617788177646	1
0	2660	924.900988072637	0
0	2667	926.291392987475	1
0	2672	927.569777761178	2
0	2673	929.306357281311	1
0	2680	931.285924498874	0
0	2704	934.440289776007	1
0	2710	935.898698232877	0
0	2724	937.339891772833	1
0	2725	937.492964486329	0
0	2731	937.889996882437	1
0	2733	938.9093246883	0
0	2753	946.248570606303	1
0	2756	950.339719933314	0
0	2790	964.133199438322	1
0	2796	966.898799890786	2
0	2798	968.653478293554	3
0	2800	969.149235680823	4
0	2801	971.231782624858	3
0	2807	971.952520138364	2
0	2813	971.963435538471	3
0	2819	974.899356536329	2
0	2824	976.733539407782	1
0	2832	977.310314057579	2
0	2833	977.475843646385	1
0	2839	978.280322702075	2
0	2840	978.938394208611	1
0	2849	982.237621913803	0
0	2892	996.093616163483	1
0	2893	998.347379025267	0
0	2908	1005.217307499585	1
0	2911	1006.342119362042	0
0	2925	1013.823771045281	1
0	2929	1018.854089213016	2
0	2932	1019.518747617032	1
0	2938	1023.160248647412	0
0	2953	1027.843636379138	1
0	2956	1028.216642212913	0
0	2966	1031.709240478244	1
0	2970	1032.671393734184	2
0	2972	1034.294669834105	1
0	2981	1039.872770635778	0
0	3001	1041.808542825669	1
0	3006	1044.339727756737	0
0	3024	1048.491899924382	1
0	3026	1049.965957599111	2
0	3028	1050.975626837178	3
0	3032	1053.011486570624	4
0	3035	1055.433707757669	3
0	3042	1057.044752388163	2
0	3048	1058.159914366095	1
0	3054	1059.790775258202	0
0	3065	1060.176955929192	1
0	3067	1061.586508854593	0
0	3079	1063.613559727775	1
0	3083	1064.248224965818	2
0	3084	1065.468219429545	1
0	3090	1066.594205822716	0
0	3152	1101.527022245197	1
0	3154	1102.308595133369	2
0	3155	1102.355839310083	1
0	3162	1103.718552970533	0
0	3222	1130.363291300469	1
0	3223	1131.383055864496	0
0	3229	1132.267222844825	1
0	3232	1134.556969767938	0
0	3241	1137.238077503268	1
0	3247	1138.171224475724	2
0	3248	1139.067229854933	1
0	3254	1139.623370701865	2
0	3259	1141.776646979021	1
0	3270	1144.619311688916	0
0	3276	1144.630752861791	1
0	3277	1145.31995940827	0
0	3283	1145.984225414641	1
0	3286	1147.984118429969	0
0	3303	1151.124928564146	1
0	3304	1153.837825768323	0
0	3311	1155.328318294034	1
0	3312	1158.563720664904	0
0	3341	1171.83029064036	1
0	3342	1172.285502593478	0
0	3359	1180.089970130537	1
0	3360	1181.798530335393	0
0	3368	1186.631480702123	1
0	3376	1197.114547329133	2
0	3379	1199.437825905949	1
0	3390	1202.402153044152	2
0	3392	1205.566075828134	3
0	3393	1206.062205614168	2
0	3398	1206.549854301043	1
0	3404	1207.545924992361	0
0	3448	1218.31631877758	1
0	3450	1218.761110967898	2
0	3452	1220.015474857851	3
0	3453	1220.303815809864	2
0	3458	1220.401438329015	1
0	3464	1220.948925829314	2
0	3466	1221.215849866191	1
0	3474	1223.244058575994	2
0	3478	1227.504589487701	3
0	3479	1230.004831168583	2
0	3485	1231.34501118661	1
0	3490	1231.500228130045	0
0	3552	1244.355111232265	1
0	3553	1245.001151904481	0
0	3567	1249.987158067011	1
0	3569	1250.115229011139	2
0	3571	1252.778946311711	3
0	3572	1253.715417138868	2
0	3578	1254.060936794102	3
0	3581	1254.614124176149	2
0	3589	1257.472147135753	1
0	3598	1262.169935873997	2
0	3599	1262.79333739728	1
0	3606	1265.376724285506	0
0	3612	1265.449116491505	1
0	3613	1266.379545547178	0
0	3619	1268.20401570927	1
0	3621	1269.46630982303	0
0	3635	1272.689821112435	1
0	3639	1275.191026316724	0
0	3645	1275.660016617855	1
0	3647	1276.002005160028	2
0	3651	1278.748673405611	3
0	3652	1280.374184833767	2
0	3658	1283.293829579714	1
0	3664	1283.701395895344	2
0	3667	1284.400747589486	3
0	3668	1285.30134665135	2
0	3674	1287.413304028997	1
0	3680	1287.54943872254	2
0	3681	1287.614821473227	1
0	3690	1289.849202020509	0
0	3721	1300.779220396323	1
0	3723	1300.923427301812	2
0	3725	1304.280727905895	3
0	3728	1304.338410560115	2
0	3733	1304.485928989093	1
0	3741	1308.334356788757	2
0	3743	1310.272121778679	3
0	3745	1310.459956847833	4
0	3746	1310.64227750184	3
0	3751	1311.985529469788	2
0	3757	1312.052036261322	3
0	3765	1317.343008748894	4
0	3766	1317.377540706198	3
0	3773	1318.114871468329	4
0	3775	1319.596478876155	3
0	3782	1320.843354047081	4
0	3783	1322.474014022358	3
0	3788	1323.587908986883	2
0	3794	1324.301680903292	1
0	3802	1326.592008699333	2
0	3803	1326.887126014417	1
0	3809	1327.569312072981	2
0	3813	1329.704104191924	3
0	3814	1330.049438711927	2
0	3821	1330.414191200171	3
0	3822	1330.716661445614	2
0	3828	1331.734361598098	1
0	3834	1332.465395262895	2
0	3836	1333.261116182992	3
0	3838	1334.008981388254	4
0	3840	1335.448573551029	5
0	3841	1337.175415397302	4
0	3847	1338.286793783123	5
0	3849	1339.554228517557	6
0	3851	1341.798781089994	5
0	3857	1342.817305257768	6
0	3859	1343.195727350144	5
0	3865	1343.240820269967	6
0	3868	1343.497551139945	5
0	3874	1345.230546650757	4
0	3880	1345.3092772266	5
0	3883	1348.971045569977	6
0	3884	1350.745322763188	5
0	3889	1352.456235336009	4
0	3896	1353.020147891505	5
0	3903	1356.164371438824	4
0	3909	1356.188169670615	5
0	3913	1357.891449104232	6
0	3914	1358.835454613327	5
0	3919	1360.567611787325	4
0	3927	1363.331079330055	5
0	3928	1363.672234906462	4
0	3939	1366.875161744496	5
0	3944	1371.044375593634	4
0	3950	1372.574420065558	3
0	3956	1377.53033371652	4
0	3957	1377.756282568648	3
0	3963	1379.135493387017	2
0	3970	1379.376490922149	3
0	3974	1380.003998458068	4
0	3975	1380.701114826209	3
0	3980	1380.904015864975	2
0	3986	1380.917509254971	3
0	3988	1384.019749459905	2
0	3993	1384.951934032857	1
0	3999	1386.799503161252	0
0	4010	1388.140691727645	1
0	4011	1388.172412042127	0
0	4045	1400.785638610312	1
0	4049	1403.751624855149	2
0	4050	1404.570819668818	1
0	4059	1406.383485028441	2
0	4060	1406.934438493476	1
0	4067	1407.001998025041	0
0	4087	1417.071177081863	1
0	4089	1417.081083654418	2
0	4091	1419.641985832108	3
0	4092	1420.383416915242	2
0	4099	1422.190828544836	1
0	4104	1423.712739369038	0
0	4113	1424.590719043553	1
0	4118	1426.825525595717	0
0	4130	1433.47146519303	1
0	4131	1434.458748273627	0
0	4143	1444.276246788513	1
0	4144	1444.320849549131	0
0	4160	1450.219467297041	1
0	4163	1450.65068640372	0
0	4169	1451.323882158007	1
0	4176	1454.36579836086	0
0	4197	1458.143224586853	1
0	4198	1458.336034837686	0
0	4204	1458.492679415823	1
0	4206	1458.891224342961	2
0	4208	1459.345858570738	3
0	4211	1459.745776806996	4
0	4213	1461.242696498334	5
0	4216	1463.47269361808	4
0	4224	1464.948255601186	3
0	4230	1465.456529121758	4
0	4233	1466.795446772351	5
0	4236	1470.060001451757	4
0	4242	1470.198270762157	5
0	4245	1471.64716594799	6
0	4247	1473.167110641336	7
0	4249	1477.070352817913	8
0	4251	1478.650707151093	9
0	4252	1480.394646697058	8
0	4258	1480.745730893028	9
0	4263	1482.958669409545	8
0	4268	1483.024303786862	7
0	4275	1483.958771022572	8
0	4279	1485.553293166594	9
0	4282	1486.932912846604	10
0	4283	1487.700671143616	9
0	4290	1488.698297386753	8
0	4295	1489.356207948423	7
0	4301	1489.464121079089	8
0	4309	1495.948965341536	9
0	4311	1497.321481887812	8
0	4316	1498.971412734947	7
0	4321	1500.575831794041	6
0	4331	1503.771435628112	5
0	4337	1505.058134111056	4
0	4342	1508.994228917182	3
0	4348	1509.465008474796	4
0	4351	1513.780699012406	3
0	4356	1514.148832943667	2
0	4361	1515.821886600641	1
0	4368	1517.596488221504	2
0	4369	1519.333638004476	1
0	4375	1522.285185669558	0
0	4381	1522.840811976814	1
0	4383	1523.400565310861	2
0	4387	1524.706910180102	3
0	4391	1529.144614313727	2
0	4396	1529.31688369592	1
0	4404	1530.506856305454	0
0	4410	1532.794955160926	1
0	4411	1533.521672442493	0
0	4417	1534.249356514667	1
0	4419	1535.230441453157	2
0	4422	1536.72492189122	1
0	4428	1537.036947141182	2
0	4429	1538.596860858959	1
0	4434	1540.90149313043	0
0	4443	1545.737007300877	1
0	4446	1546.196711388819	0
0	4469	1549.766110412123	1
0	4470	1553.103595095958	0
0	4482	1557.256446161087	1
0	4483	1557.493526091798	0
0	4489	1559.001327277093	1
0	4490	1561.279907511615	0
0	4496	1561.376780522354	1
0	4497	1562.233658366815	0
0	4513	1565.634353791732	1
0	4515	1565.789490873769	2
0	4517	1565.948502349023	3
0	4519	1567.242432641631	2
0	4524	1571.18084224701	1
0	4536	1576.073572714083	0
0	4551	1577.228111213886	1
0	4554	1578.587983485564	0
0	4560	1579.606681118837	1
0	4561	1579.788478580619	0
0	4577	1588.521337780573	1
0	4582	1592.672710930932	0
0	4596	1596.966132303875	1
0	4601	1601.008261265816	2
0	4605	1602.834916983477	1
0	4611	1602.93889543203	2
0	4616	1605.652219890653	1
0	4623	1607.153549724998	2
0	4625	1607.864250672202	3
0	4626	1608.868524920324	2
0	4632	1608.936308485251	3
0	4635	1610.99100239603	4
0	4636	1611.213362197417	3
0	4641	1611.535352684521	2
0	4650	1617.123912975273	1
0	4656	1618.616659158087	0
0	4667	1619.482607952772	1
0	4671	1621.323325300034	2
0	4673	1622.730336377716	1
0	4679	1622.750559557874	2
0	4681	1626.420636299822	1
0	4689	1627.074947896875	0
0	4707	1630.908771258875	1
0	4708	1631.347315616074	0
0	4714	1631.576478900592	1
0	4715	1632.200282215238	0
0	4722	1632.526320117096	1
0	4728	1633.473971381625	2
0	4730	1634.19841355747	1
0	4735	1636.700131896428	0
0	4743	1637.405047986041	1
0	4745	1640.825648299626	2
0	4746	1641.583637695144	1
0	4751	1641.832559375741	0
0	4771	1653.732355789981	1
0	4772	1654.088283912249	0
0	4811	1665.802131748043	1
0	4816	1668.850672243772	2
0	4818	1669.35922481659	3
0	4819	1669.561697526829	2
0	4827	1673.604610567629	1
0	4836	1675.938983086222	2
0	4838	1676.834151573519	3
0	4839	1676.947762213552	2
0	4844	1677.79060492502	1
0	4852	1679.979170916568	0
0	4859	1680.174595206183	1
0	4860	1680.379408541914	0
0	4866	1680.557454672952	1
0	4868	1683.009354657214	0
0	4880	1685.626440847057	1
0	4881	1687.615693481852	0
0	4893	1691.487010036752	1
0	4894	1692.99434282294	0
0	4908	1694.885158027572	1
0	4912	1695.355218146446	2
0	4917	1697.490671047063	1
0	4922	1697.98199225645	0
0	4928	1699.134116444322	1
0	4930	1702.398668141627	2
0	4931	1702.857613741042	1
0	4937	1704.112045060794	0
0	4961	1709.92978449266	1
0	4963	1710.664102219503	2
0	4966	1712.068136633611	1
0	4973	1713.569417937039	2
0	4981	1717.44536888028	1
0	4988	1718.84830769879	0
0	5006	1725.553320024047	1
0	5012	1729.962597145253	2
0	5014	1732.392816732236	3
0	5016	1732.570596946211	4
0	5019	1734.342364787926	3
0	5024	1734.480730712336	2
0	5030	1734.723714418836	1
0	5036	1738.093314257034	0
0	5043	1739.302445759939	1
0	5044	1739.464973984801	0
0	5060	1744.324250138957	1
0	5064	1746.630998104195	2
0	5066	1751.17154946327	3
0	5067	1753.438985326244	2
0	5072	1753.887975689275	1
0	5077	1756.086172976909	0
0	5084	1758.297027982193	1
0	5087	1761.812596388281	0
0	5142	1777.453663802072	1
0	5143	1778.332893326517	0
0	5154	1779.519456663335	1
0	5156	1780.233884655453	2
0	5158	1783.423474800423	3
0	5163	1785.070172316323	2
0	5169	1786.79080949014	1
0	5174	1787.472113255152	0
0	5180	1787.550381420409	1
0	5185	1792.063207787077	0
0	5201	1795.56673164755	1
0	5206	1799.689563760797	2
0	5208	1802.944873809391	3
0	5209	1803.329505277429	2
0	5217	1805.060484685022	3
0	5218	1805.551298333442	2
0	5224	1805.687349206091	1
0	5230	1807.59729910523	0
0	5244	1810.096603047411	1
0	5245	1810.437161794648	0
0	5253	1811.188160871258	1
0	5255	1811.517952031003	2
0	5258	1815.375097039898	3
0	5264	1820.229411354561	4
0	5266	1821.946992627646	5
0	5267	1822.967979184837	4
0	5273	1823.309920436726	5
0	5275	1824.709670863281	4
0	5280	1824.720391920235	3
0	5285	1826.482005950893	2
0	5293	1828.210039904131	3
0	5296	1833.956078971848	2
0	5301	1835.187802553868	1
0	5307	1836.496454711848	0
0	5319	1837.48282553208	1
0	5320	1837.958500897601	0
0	5332	1839.488804971272	1
0	5334	1840.448487297391	0
0	5346	1841.316752811869	1
0	5347	1841.56884456891	0
0	5365	1844.775854370549	1
0	5369	1845.725469750464	2
0	5374	1851.486780011132	1
0	5381	1852.686244571579	2
0	5383	1853.462507073398	3
0	5388	1858.143837843034	4
0	5394	1862.253442731065	5
0	5398	1864.918395558099	6
0	5399	1867.295592258031	5
0	5406	1868.393836395568	6
0	5408	1869.812026435676	7
0	5410	1870.175162796498	8
0	5411	1871.401545261679	7
0	5416	1871.620428162791	6
0	5421	1871.696540950864	5
0	5428	1872.137725788731	4
0	5432	1872.428968981396	5
0	5438	1874.753009437596	6
0	5442	1878.298820703544	7
0	5444	1880.655815789859	8
0	5445	1881.181282948783	7
0	5451	1881.913672601153	8
0	5452	1882.636875905543	7
0	5457	1882.776356301468	6
0	5462	1882.944542984414	5
0	5469	1886.20071181425	6
0	5471	1887.811743079747	7
0	5472	1889.065679186792	6
0	5478	1889.775912227895	7
0	5481	1891.455995485799	6
0	5487	1897.957111166548	7
0	5495	1903.257435768999	6
0	5501	1904.476258886882	7
0	5506	1906.883943667468	6
0	5512	1907.518723718732	7
0	5513	1907.885744257337	6
0	5520	1909.100114957827	7
0	5522	1909.94514394751	8
0	5524	1910.259698108429	7
0	5530	1910.347514073418	8
0	5534	1911.490503291107	9
0	5536	1911.558359796024	10
0	5538	1914.500796235276	9
0	5544	1914.859152881244	8
0	5549	1914.886895538365	7
0	5555	1915.713164919937	8
0	5557	1915.916016881205	9
0	5561	1916.774732950585	10
0	5563	1916.810411870294	11
0	5564	1916.92773179165	10
0	5569	1918.047696894601	9
0	5576	1918.876976065856	8
0	5580	1919.795080368025	9
0	5585	1920.359633949746	10
0	5591	1923.357785375066	11
0	5592	1925.484411590127	10
0	5598	1927.236622903662	9
0	5603	1927.487401439984	8
0	5608	1930.001929376958	7
0	5614	1932.806572489391	8
0	5616	1933.845853493726	9
0	5619	1937.204808569096	10
0	5620	1941.17077591572	9
0	5625	1945.081613578177	8
0	5633	1947.807395096082	9
0	5634	1948.768134229348	8
0	5644	1952.476241571214	7
0	5650	1955.012774202675	6
0	5655	1955.400697413826	5
0	5661	1956.367734599766	6
0	5663	1959.611102662483	5
0	5668	1959.61262205885	4
0	5678	1960.625640606709	5
0	5679	1960.742289690096	4
0	5684	1960.863736326611	3
0	5689	1961.86874590109	2
0	5693	1962.197154833155	3
0	5695	1962.877597695424	4
0	5699	1963.788255826274	3
0	5704	1964.388311407731	2
0	5712	1965.070678922868	3
0	5713	1965.397444300544	2
0	5718	1966.490303114053	1
0	5724	1967.3597155534	2
0	5726	1968.169909728279	3
0	5730	1970.227225136074	4
0	5731	1970.33840959542	3
0	5737	1973.624521024879	2
0	5752	1981.727282009074	3
0	5755	1984.670348429003	2
0	5761	1984.754848938803	3
0	5763	1985.705638215029	2
0	5768	1987.36415106925	1
0	5775	1989.080104405467	0
0	5805	1993.043318283928	1
0	5811	1994.445179552824	2
0	5812	1995.513113541454	1
0	5821	1997.931321106653	0
0	5833	1999.875039435175	1
0	5834	2000.319897697385	0
0	5843	2001.05841074047	1
0	5846	2001.5456597227	0
0	5864	2005.19688346908	1
0	5865	2006.006717688887	0
0	5872	2007.887525433719	1
0	5873	2007.891905179778	0
0	5901	2026.113398606109	1
0	5902	2026.720802804172	0
0	5923	2033.292844920284	1
0	5924	2035.795436325231	0
0	5932	2037.15761812172	1
0	5933	2037.761116930541	0
0	5949	2039.672249528611	1
0	5955	2042.559533406719	2
0	5956	2044.134031463624	1
0	5961	2044.921720329022	0
0	5973	2049.623688454224	1
0	5976	2050.876979181726	2
0	5979	2051.362341344592	3
0	5980	2052.011946050916	2
0	5987	2053.292021544916	1
0	5995	2054.230164716737	2
0	5999	2055.015927907099	3
0	6001	2055.071763010245	4
0	6002	2057.932675104483	3
0	6007	2059.331982982061	2
0	6013	2059.726822360566	1
0	6019	2059.841577637226	2
0	6024	2061.504123923982	3
0	6026	2062.872569766545	2
0	6033	2062.969100473383	3
0	6034	2063.80675476576	2
0	6040	2064.701832609363	1
0	6046	2064.861201121477	2
0	6049	2066.417678923481	1
0	6055	2067.062038978532	2
0	6060	2072.365169800792	1
0	6066	2073.595229290913	0
0	6083	2074.315001883808	1
0	6087	2076.946213693856	0
0	6093	2077.661630114366	1
0	6096	2078.429517073252	2
0	6098	2079.464454346529	3
0	6104	2084.887143891876	4
0	6107	2087.453951813338	3
0	6114	2089.966272969425	2
0	6119	2090.240194536658	1
0	6124	2090.534704615808	0
0	6155	2094.128821843718	1
0	6160	2099.891726642306	0
0	6176	2106.96352774582	1
0	6177	2108.760443675575	0
0	6188	2110.980081547371	1
0	6192	2112.77830431513	0
0	6201	2114.583721608912	1
0	6204	2115.924623095148	0
0	6215	2117.69631339173	1
0	6218	2118.544800291007	0
0	6238	2127.478492624545	1
0	6244	2129.444045160636	2
0	6245	2129.588096493574	1
0	6251	2131.057589427208	0
0	6258	2132.316218998459	1
0	6259	2135.009496246329	0
0	6278	2139.860507294953	1
0	6279	2140.908190098488	0
0	6288	2141.760210224149	1
0	6292	2144.394001928153	2
0	6296	2148.391614708273	3
0	6303	2150.515648457663	4
0	6305	2151.384304507388	5
0	6307	2153.887518924768	6
0	6308	2154.75567665225	5
0	6314	2155.559970797806	6
0	6315	2156.078068523747	5
0	6322	2157.295900789511	4
0	6328	2157.63167542088	5
0	6332	2161.789867690791	4
0	6337	2161.998455512026	3
0	6344	2163.077619265021	4
0	6346	2163.556848659865	5
0	6349	2164.648355670847	6
0	6350	2165.180615980076	5
0	6359	2166.680448154114	6
0	6360	2168.077280001413	5
0	6365	2169.824943093385	4
0	6371	2171.077303795094	3
0	6377	2171.763312097286	4
0	6381	2172.177552975382	5
0	6384	2174.237941584606	4
0	6389	2174.428034283373	3
0	6397	2176.244289590645	2
0	6406	2177.975069239317	1
0	6413	2179.40260575402	2
0	6414	2179.558320434969	1
0	6420	2181.653835476327	2
0	6422	2181.930583997193	3
0	6424	2183.591244666352	4
0	6425	2184.935451010291	3
0	6430	2185.987861339308	2
0	6435	2186.515829750891	1
0	6445	2190.318979800927	0
0	6451	2190.836842262048	1
0	6453	2191.711932734539	2
0	6454	2192.254602440651	1
0	6461	2194.698685580625	0
0	6480	2199.571226173457	1
0	6481	2199.915300607263	0
0	6490	2202.200488828477	1
0	6492	2202.425789886966	0
0	6503	2203.40836683045	1
0	6507	2205.542699835417	0
0	6524	2208.533752155043	1
0	6525	2210.035415343256	0
0	6531	2210.347567173527	1
0	6533	2211.454507086003	0
0	6541	2212.487874618121	1
0	6544	2215.292830615856	2
0	6545	2216.616171069196	1
0	6550	2217.503730684463	0
0	6564	2221.938537198424	1
0	6568	2222.416507119009	2
0	6571	2223.678273881301	1
0	6578	2224.771407008344	0
0	6585	2225.47333058918	1
0	6588	2226.52737614966	0
0	6596	2226.813983957252	1
0	6603	2229.741068103866	2
0	6604	2231.048263661017	1
0	6610	2231.532439982505	2
0	6612	2233.578386876641	1
0	6620	2234.16588110172	2
0	6622	2234.655631926355	1
0	6630	2238.310052233389	2
0	6632	2240.227207428141	1
0	6639	2241.481933368786	0
0	6660	2250.233276002034	1
0	6663	2252.677394174088	0
0	6702	2260.838088042813	1
0	6703	2261.197307001018	0
0	6709	2261.48454134009	1
0	6712	2262.347613969532	2
0	6713	2263.016009345628	1
0	6720	2264.450737481967	0
0	6726	2264.571038218555	1
0	6728	2266.844034004346	0
0	6734	2267.24553526175	1
0	6735	2268.106926032315	0
0	6745	2268.670928370153	1
0	6751	2270.007807364798	2
0	6753	2272.007766446446	3
0	6754	2273.373272280196	2
0	6760	2277.189507580536	1
0	6765	2277.464173877051	0
0	6783	2283.095896555208	1
0	6787	2284.449906152488	2
0	6791	2285.127891285413	3
0	6793	2285.874496022848	4
0	6795	2286.237013543246	3
0	6803	2287.794841020298	4
0	6805	2289.661721621761	3
0	6813	2292.191346071185	2
0	6820	2292.546714110633	3
0	6823	2293.613077467027	4
0	6824	2294.213892733393	3
0	6832	2295.384904198235	4
0	6833	2295.497703021273	3
0	6839	2297.695067380908	2
0	6844	2298.481607706054	1
0	6850	2300.168272323774	0
0	6860	2301.947501214889	1
0	6869	2308.893965944083	2
0	6872	2313.348828964635	1
0	6878	2313.97693624565	2
0	6880	2315.807499440193	1
0	6885	2316.088391465591	0
0	6893	2317.873687321681	1
0	6894	2318.468378968907	0
0	6923	2323.659931086598	1
0	6925	2327.969059938269	2
0	6931	2330.4608039447	3
0	6932	2333.304311958402	2
0	6938	2333.869622287975	3
0	6939	2333.962796824518	2
0	6947	2337.495274836434	1
0	6953	2337.989265272074	0
0	6959	2339.652080139818	1
0	6961	2339.871843232571	2
0	6962	2339.879791118209	1
0	6968	2341.851400980058	0
0	6976	2343.046875624144	1
0	6981	2344.868353008124	2
0	6983	2345.232752983096	3
0	6984	2346.025247872783	2
0	6991	2347.563736820693	1
0	6998	2349.829954387043	2
0	7000	2351.724443967093	1
0	7005	2352.656881733064	0
0	7011	2354.049548858872	1
0	7012	2354.426396630534	0
0	7019	2356.278005881285	1
0	7020	2357.227459027779	0
0	7037	2363.362543852033	1
0	7039	2363.537291683115	2
0	7040	2364.138040291319	1
0	7046	2365.387021430422	2
0	7047	2365.387872163092	1
0	7056	2367.973516940895	0
0	7076	2373.370338723752	1
0	7077	2373.410935390258	0
0	7083	2374.440987988121	1
0	7085	2375.937472051284	0
0	7094	2376.296067628473	1
0	7097	2377.30750539224	0
0	7104	2379.057429072881	1
0	7106	2379.238828024015	2
0	7107	2379.493717692116	1
0	7116	2383.798371734606	0
0	7122	2384.170454186881	1
0	7123	2384.523385218381	0
0	7137	2387.075086865125	1
0	7139	2387.441435301628	2
0	7140	2388.268021974812	1
0	7146	2388.809764139697	0
0	7153	2389.851973574963	1
0	7155	2390.691984445324	2
0	7156	2391.728828831163	1
0	7166	2392.803815749759	0
0	7181	2398.547658628647	1
0	7184	2402.961929631108	0
0	7192	2404.444746538539	1
0	7193	2404.950086076541	0
0	7210	2409.371192056492	1
0	7214	2413.180330150395	2
0	7219	2414.276749193585	1
0	7229	2416.039349009157	2
0	7231	2416.287695793672	3
0	7234	2421.302867896096	2
0	7239	2421.322078143901	1
0	7244	2423.323912922505	0
0	7250	2423.450618907943	1
0	7251	2425.132862039726	0
0	7275	2429.927692648643	1
0	7278	2430.511437955004	2
0	7281	2432.483384421001	1
0	7287	2433.864321376881	0
0	7297	2438.780088365616	1
0	7300	2439.369698153592	0
0	7309	2441.514336539467	1
0	7311	2442.161906824297	2
0	7313	2442.473553033471	3
0	7314	2447.025405286444	2
0	7321	2447.705895751729	1
0	7331	2450.244193269688	0
0	7353	2455.250553706666	1
0	7356	2459.103636260841	0
0	7362	2459.93671641732	1
0	7365	2460.482715607424	2
0	7366	2462.590725124057	1
0	7371	2463.012894626156	0
0	7387	2465.266356061542	1
0	7388	2465.37855982435	0
0	7399	2468.28406435714	1
0	7402	2469.810468722808	0
0	7415	2471.530088024272	1
0	7417	2475.456953630175	2
0	7418	2476.880357878808	1
0	7425	2478.609101638639	0
0	7450	2487.376126377788	1
0	7452	2487.928466436829	2
0	7453	2488.960616522735	1
0	7458	2490.508256879032	0
0	7477	2499.257492132286	1
0	7481	2503.645529432863	0
0	7491	2506.445773854777	1
0	7496	2510.664830646579	0
0	7504	2511.739478811236	1
0	7508	2514.385328897459	2
0	7512	2517.343523356376	3
0	7514	2518.809884284626	4
0	7515	2519.141481508157	3
0	7520	2520.036053882298	2
0	7526	2521.087823291708	3
0	7527	2521.832099798198	2
0	7533	2523.618662608366	1
0	7541	2525.000980032331	0
0	7579	2543.932453029483	1
0	7582	2548.415106897022	0
0	7589	2551.066167178503	1
0	7590	2551.920298115967	0
0	7599	2553.374121785473	1
0	7601	2553.628870830826	2
0	7603	2556.156067942179	3
0	7607	2559.633278691903	2
0	7615	2561.31405351006	1
0	7620	2561.488129628889	0
0	7626	2563.021506581036	1
0	7630	2564.532267272911	2
0	7631	2565.593735954573	1
0	7636	2566.214883224847	0
0	7650	2569.857885884221	1
0	7658	2572.718736550568	2
0	7660	2575.15638672687	1
0	7668	2576.055096809153	0
0	7686	2577.488854615821	1
0	7687	2577.792620735684	0
0	7708	2582.278182354945	1
0	7709	2582.907483997488	0
0	7715	2584.077997298037	1
0	7721	2589.472495003455	2
0	7726	2592.197780380881	1
0	7732	2594.896525300802	0
0	7748	2597.870148156293	1
0	7749	2598.376741278456	0
0	7762	2604.278377729946	1
0	7764	2604.382804253255	2
0	7766	2605.512734151465	3
0	7773	2611.124141289392	2
0	7782	2612.681710224389	3
0	7786	2612.911735433441	2
0	7793	2613.492309467838	1
0	7800	2615.13212467004	2
0	7801	2615.368485928676	1
0	7806	2619.662731517623	0
0	7814	2620.623446415032	1
0	7817	2621.543409524501	0
0	7831	2625.091841146081	1
0	7833	2625.902779825093	2
0	7836	2626.637681889515	3
0	7838	2627.793502835699	4
0	7839	2627.998156121248	3
0	7844	2630.398313706319	2
0	7849	2630.909016499837	1
0	7855	2631.943959611971	0
0	7886	2638.575421303224	1
0	7887	2638.907461554382	0
0	7901	2641.950815739197	1
0	7904	2643.009810115638	0
0	7913	2645.104454167043	1
0	7915	2646.598662856926	2
0	7917	2649.856758606986	3
0	7919	2650.070513576987	4
0	7924	2652.869528032314	3
0	7929	2653.224754330462	2
0	7937	2655.248549296497	1
0	7944	2656.691926069978	0
0	7956	2662.065679386412	1
0	7957	2662.283213602206	0
0	7963	2663.00892628753	1
0	7964	2663.092721244216	0
0	8023	2683.272911279006	1
0	8027	2685.082002104389	2
0	8030	2685.8831918622	1
0	8043	2689.322594052633	2
0	8044	2694.628167441578	1
0	8049	2694.861213666934	0
0	8065	2698.353420482075	1
0	8068	2698.76866888262	0
0	8092	2706.136570844303	1
0	8094	2707.866335258134	2
0	8095	2708.072283941959	1
0	8101	2714.235294675959	0
0	8110	2715.552902402318	1
0	8112	2715.861237072419	2
0	8115	2717.686460628265	1
0	8120	2717.818947697295	0
0	8129	2720.978291163225	1
0	8131	2722.355377723833	0
0	8145	2728.154981601901	1
0	8149	2732.833533294707	2
0	8153	2734.347437214566	1
0	8159	2735.067304593964	2
0	8166	2738.522577168843	1
0	8173	2740.103202826996	2
0	8174	2740.12715505827	1
0	8180	2740.519612092108	2
0	8182	2740.990041508361	1
0	8188	2741.758204696971	2
0	8191	2742.013886378198	3
0	8193	2742.95152567913	4
0	8196	2744.164398182697	3
0	8201	2745.392705462653	2
0	8209	2747.37727511668	3
0	8211	2747.67680252718	4
0	8213	2748.155963954601	5
0	8214	2749.206198816479	4
0	8219	2749.35288946096	3
0	8228	2750.56095105655	2
0	8233	2751.252016314758	1
0	8242	2754.375354012922	0
0	8249	2754.648482852073	1
0	8252	2756.211134479812	0
0	8264	2757.661064045015	1
0	8265	2758.317255522937	0
0	8284	2766.412964899681	1
0	8286	2766.609968224086	2
0	8287	2767.820237432086	1
0	8292	2768.580260757404	0
0	8303	2770.054204515689	1
0	8304	2770.472002873859	0
0	8313	2772.948336112094	1
0	8318	2773.821890452635	2
0	8320	2774.634893144577	3
0	8323	2776.317732503432	4
0	8325	2776.707763915572	5
0	8327	2776.947108981174	6
0	8332	2778.644766412689	7
0	8333	2781.24520735515	6
0	8342	2782.884916143269	5
0	8347	2782.891471702103	4
0	8359	2790.256782358417	5
0	8360	2794.220360375659	4
0	8365	2795.114779251087	3
0	8370	2795.220718342795	2
0	8378	2796.608804927836	3
0	8381	2798.53809657952	4
0	8382	2799.550401171342	3
0	8388	2800.106502229789	4
0	8390	2801.372512344115	3
0	8396	2803.198021789013	4
0	8398	2805.114614927745	3
0	8405	2805.857501488075	4
0	8410	2807.830748823914	3
0	8415	2807.979702651599	2
0	8423	2809.1093710413	1
0	8428	2809.665977174414	0
0	8455	2821.659269286845	1
0	8456	2822.82735737161	0
0	8468	2827.372094533485	1
0	8469	2829.575378988123	0
0	8505	2838.332608690716	1
0	8507	2838.800879329843	2
0	8508	2838.850869727327	1
0	8516	2841.677444359593	2
0	8517	2842.548165931239	1
0	8524	2846.747885896392	2
0	8525	2847.277283916749	1
0	8530	2848.343880249864	0
0	8547	2851.777605286676	1
0	8548	2851.959124903351	0
0	8603	2869.494373244148	1
0	8604	2871.24384991413	0
0	8619	2876.693587624444	1
0	8624	2880.02179565367	0
0	8634	2883.852439029881	1
0	8637	2885.375470516548	0
0	8649	2887.082079243776	1
0	8652	2888.041440702831	0
0	8664	2890.111970075027	1
0	8669	2891.737932484134	0
0	8676	2895.22142416631	1
0	8677	2895.339929093196	0
0	8702	2902.242528123341	1
0	8703	2902.460940394884	0
0	8710	2903.750570224472	1
0	8711	2903.902928724074	0
0	8725	2908.8562650032	1
0	8727	2911.131314289409	2
0	8729	2914.369498766958	3
0	8731	2919.100452414353	4
0	8733	2919.17793818798	5
0	8735	2920.980445093596	6
0	8736	2921.294160739349	5
0	8742	2923.321384749753	6
0	8745	2924.023521139778	7
0	8747	2924.0508961698	8
0	8752	2926.340025335348	7
0	8758	2931.300554446654	6
0	8767	2932.930604740425	5
0	8772	2934.216638235384	4
0	8778	2935.366411879655	5
0	8785	2939.584950751413	6
0	8787	2941.294523284539	7
0	8788	2941.604887252012	6
0	8794	2942.648799994482	7
0	8795	2942.712228822066	6
0	8800	2945.982347678501	5
0	8805	2946.86717645978	4
0	8813	2950.334116505361	5
0	8814	2950.860934989296	4
0	8820	2951.483309772193	5
0	8824	2953.367352542057	6
0	8825	2955.029691909966	5
0	8829	2957.61279487612	6
0	8836	2959.67357829055	7
0	8839	2962.533435935936	8
0	8840	2964.015445544922	7
0	8848	2966.350736153565	6
0	8854	2970.013194080263	5
0	8860	2970.636774422839	4
0	8866	2974.808330216358	3
0	8872	2974.899834891199	4
0	8873	2975.311728052364	3
0	8878	2976.541082154084	2
0	8883	2976.61521092571	1
0	8888	2978.084413471911	0
0	8892	2978.107208548417	1
0	8896	2979.866445266223	2
0	8899	2982.505963582934	1
0	8908	2984.017993014253	2
0	8913	2986.899464511357	1
0	8918	2987.231744706758	0
0	8935	2997.388456463968	1
0	8936	2998.891386684587	0
0	8958	3005.524028668473	1
0	8959	3005.56892077779	0
0	9016	3026.625148438778	1
0	9019	3029.136965406393	0
0	9028	3032.748574089715	1
0	9030	3035.452002749796	2
0	9031	3036.28200757257	1
0	9037	3036.293091194722	2
0	9038	3036.410323424708	1
0	9046	3038.203968872401	0
0	9053	3040.452557398493	1
0	9054	3041.464599822368	0
0	9072	3045.880275711563	1
0	9073	3047.050345984136	0
0	9082	3049.389985481334	1
0	9084	3050.557773257551	2
0	9086	3051.99626160401	3
0	9087	3056.208222873072	2
0	9097	3060.112421953606	1
0	9104	3061.146449831727	2
0	9105	3062.203628292926	1
0	9110	3062.956656287215	0
0	9126	3067.260273894726	1
0	9129	3068.050241394289	0
0	9148	3076.457551335002	1
0	9152	3078.409034072687	2
0	9153	3078.532385805597	1
0	9158	3080.046506329569	0
0	9166	3082.283652912701	1
0	9167	3084.747556350258	0
0	9174	3086.396874677866	1
0	9175	3086.442116852831	0
0	9185	3088.288559868589	1
0	9188	3090.209309325577	0
0	9215	3097.887526567309	1
0	9217	3099.573640842921	2
0	9220	3102.644970479024	1
0	9232	3108.059623427029	2
0	9235	3111.157149367997	1
0	9241	3112.753528603444	0
0	9253	3116.115778233266	1
0	9254	3116.529754544791	0
0	9268	3117.522948140733	1
0	9270	3120.135217081865	2
0	9271	3121.408558496715	1
0	9277	3121.590537060706	0
0	9307	3129.52949525243	1
0	9309	3130.131999863337	2
0	9311	3130.384671706891	3
0	9312	3130.760529398854	2
0	9318	3131.24641488034	3
0	9319	3131.898299729416	2
0	9326	3132.421354544579	3
0	9327	3133.396665837036	2
0	9336	3134.965263234037	3
0	9337	3135.653841578917	2
0	9344	3137.816660067406	1
0	9349	3137.941755585923	0
0	9372	3143.465795971301	1
0	9374	3146.183462430022	0
0	9381	3147.128783102499	1
0	9383	3147.177684106299	2
0	9385	3148.352194275451	1
0	9391	3148.527478232333	2
0	9394	3150.993897086448	1
0	9399	3152.694131340311	0
0	9406	3153.424414158658	1
0	9410	3153.660002443036	2
0	9412	3154.640675584031	1
0	9418	3155.998784345523	2
0	9422	3156.91703017954	1
0	9428	3156.966040552484	2
0	9430	3157.434915719321	3
0	9432	3157.740354355417	4
0	9434	3159.419424483377	3
0	9448	3164.654096149059	4
0	9454	3166.943810612956	5
0	9456	3167.704350505784	6
0	9457	3168.015637759647	5
0	9463	3168.663532931016	4
0	9469	3170.77763178654	3
0	9474	3171.028240708955	2
0	9480	3172.895899885135	1
0	9486	3174.109549659393	2
0	9488	3174.829875772004	1
0	9495	3176.915635073106	2
0	9499	3181.26582257592	1
0	9506	3181.927649142774	2
0	9508	3182.136417852974	3
0	9510	3182.38233987152	4
0	9512	3183.183153516164	5
0	9517	3192.046900427852	4
0	9523	3192.170984940538	5
0	9524	3192.872483063879	4
0	9529	3193.99597187861	3
0	9535	3194.951316320099	4
0	9537	3195.93091939209	5
0	9541	3199.664783707101	4
0	9547	3199.724430507094	5
0	9549	3200.885087377576	4
0	9555	3204.319030812492	3
0	9561	3204.523714153069	4
0	9565	3206.639661385142	5
0	9566	3207.41412965627	4
0	9572	3207.514912225951	5
0	9573	3207.830165549799	4
0	9582	3211.430759710437	5
0	9583	3214.409262602328	4
0	9589	3215.677002345548	3
0	9595	3216.039273941029	2
0	9604	3220.28017550487	3
0	9610	3223.22154595794	4
0	9612	3223.516538613936	5
0	9613	3224.339703214646	4
0	9619	3225.639424340161	3
0	9625	3226.895493997564	2
0	9633	3227.17988779314	3
0	9635	3229.368193849471	4
0	9641	3231.95646412248	3
0	9651	3235.163792276305	2
0	9656	3235.527907889167	1
0	9663	3235.882101408414	2
0	9665	3236.661015601994	1
0	9671	3239.191414621369	0
0	9677	3239.622038760213	1
0	9680	3241.342832199515	2
0	9681	3241.446535794025	1
0	9686	3242.794493153851	0
0	9721	3249.658668297115	1
0	9725	3250.377145579247	2
0	9726	3250.436434389492	1
0	9732	3252.143074079106	2
0	9733	3253.837691003627	1
0	9741	3254.849551980526	2
0	9743	3255.584660999263	3
0	9745	3257.414879263392	4
0	9747	3259.201925928928	5
0	9749	3262.293225177649	4
0	9758	3264.995766495705	3
0	9765	3269.825536618709	4
0	9766	3271.296386617076	3
0	9772	3272.140002491378	2
0	9778	3272.414923470418	3
0	9780	3272.53572199905	4
0	9783	3273.714736027798	3
0	9790	3274.253894831438	4
0	9792	3274.456106085661	5
0	9795	3276.947748223347	6
0	9797	3277.655942701965	7
0	9799	3278.541252044281	8
0	9802	3279.197782309918	7
0	9810	3279.458525125782	8
0	9812	3279.478811219037	9
0	9814	3280.227739077567	8
0	9821	3282.892653439439	9
0	9822	3284.872032768778	8
0	9828	3285.277242563719	7
0	9837	3288.435339094164	6
0	9844	3288.836350842909	7
0	9845	3290.194203060068	6
0	9850	3290.394671156723	5
0	9856	3291.572383356911	4
0	9861	3291.736833743428	3
0	9866	3293.802784731286	2
0	9872	3295.122800445752	3
0	9873	3297.063063396563	2
0	9879	3300.927966617138	3
0	9886	3305.39643949143	4
0	9887	3305.786743902016	3
0	9896	3307.073389813874	2
0	9905	3308.142425573732	3
0	9906	3308.157203145706	2
0	9911	3309.065430136907	1
0	9919	3310.098072737658	2
0	9922	3312.645413853454	1
0	9927	3313.77629254018	0
0	9943	3315.002280660489	1
0	9946	3317.156354082701	0
0	9955	3320.266037477418	1
0	9956	3322.465178950412	0
0	9962	3324.78432801498	1
0	9963	3325.09210985426	0
0	10005	3340.847576697537	1
0	10007	3343.353713221472	2
0	10013	3344.839317542643	3
0	10015	3344.90637550202	4
0	10016	3347.335512572221	3
0	10021	3347.4157551064	2
0	10030	3349.121249677822	3
0	10032	3351.769201449229	4
0	10034	3352.202982430346	5
0	10035	3353.097207169326	4
0	10042	3355.129814816592	3
0	10048	3357.608834077685	2
0	10053	3357.680795940585	1
0	10059	3358.03477386557	0
0	10088	3367.182317900264	1
0	10092	3368.850243088797	2
0	10093	3369.473360550016	1
0	10099	3369.562887630814	2
0	10103	3370.906434004029	1
0	10112	3372.255407001793	0
0	10118	3372.369160731419	1
0	10121	3373.70642054794	0
0	10142	3375.618547322235	1
0	10143	3376.263990427331	0
0	10172	3385.400504396919	1
0	10174	3385.544844151195	2
0	10176	3387.9053837337	3
0	10177	3394.464606746532	2
0	10184	3397.504638528453	3
0	10185	3397.971019742209	2
0	10190	3398.801267992952	1
0	10196	3399.145852877285	2
0	10201	3400.878134941481	3
0	10202	3401.130278345773	2
0	10208	3401.772227976453	1
0	10215	3403.255337335451	0
0	10222	3404.762225933419	1
0	10223	3404.865642186663	0
0	10257	3413.049870870955	1
0	10258	3414.130775416791	0
0	10283	3420.012947334293	1
0	10288	3420.897077142329	0
0	10299	3423.220481771448	1
0	10305	3429.391347709157	2
0	10307	3429.704964828825	3
0	10308	3433.704137495329	2
0	10313	3434.240192194318	1
0	10320	3435.331147022016	2
0	10321	3435.385192035545	1
0	10328	3435.574677160233	2
0	10330	3438.725215761193	1
0	10337	3440.409480305678	2
0	10338	3441.619932286052	1
0	10344	3446.981368542194	0
0	10369	3463.008030309963	1
0	10370	3463.188558449942	0
0	10379	3466.412144435579	1
0	10380	3467.026365650738	0
0	10390	3469.657944728394	1
0	10391	3470.091768140526	0
0	10406	3475.345728040043	1
0	10408	3476.715934795946	2
0	10412	3477.699776739659	3
0	10416	3478.416830165352	4
0	10421	3480.534626912218	3
0	10427	3481.251156343156	2
0	10433	3481.718016577923	1
0	10440	3483.439744628472	2
0	10443	3484.850357187206	3
0	10444	3486.276733331405	2
0	10449	3486.55630044811	1
0	10454	3486.621534314026	0
0	10469	3489.937084891262	1
0	10473	3491.412828884742	2
0	10475	3492.428162676233	3
0	10477	3494.24819280604	4
0	10478	3495.34109134205	3
0	10489	3497.531670064233	4
0	10490	3498.628660236788	3
0	10503	3503.388546076513	2
0	10512	3505.246859821357	3
0	10513	3507.108701869917	2
0	10520	3507.803443222664	3
0	10521	3509.30310741292	2
0	10527	3512.167939439037	3
0	10528	3514.084629144552	2
0	10537	3517.365653048443	1
0	10544	3519.315692456701	0
0	10561	3522.607594337321	1
0	10563	3522.842696428345	2
0	10564	3523.905543566048	1
0	10570	3524.617683735429	2
0	10573	3527.815864405792	1
0	10579	3529.489867616311	0
0	10588	3531.434717410081	1
0	10592	3533.773042357246	2
0	10595	3534.29326475562	1
0	10602	3539.137981098366	2
0	10604	3541.025571413999	3
0	10605	3541.559353466359	2
0	10610	3541.962492206858	1
0	10617	3543.701915386299	0
0	10633	3548.042842487872	1
0	10634	3548.204934822356	0
0	10642	3549.795658333517	1
0	10648	3551.540345452253	2
0	10651	3555.137425715739	1
0	10659	3558.517165653259	0
0	10665	3558.544668212409	1
0	10666	3559.086957741197	0
0	10678	3561.761555106533	1
0	10680	3562.603138988844	0
0	10687	3565.149938139027	1
0	10690	3566.194257529919	0
0	10713	3572.946774794243	1
0	10715	3573.087958354496	2
0	10718	3576.604474599433	1
0	10724	3578.013603314786	2
0	10725	3578.452196231388	1
0	10735	3583.041449311699	2
0	10736	3583.056939116766	1
0	10742	3583.669412192496	2
0	10743	3583.678627019461	1
0	10751	3584.567046785794	2
0	10755	3588.797278297556	1
0	10760	3589.934826948378	0
0	10768	3592.142645073452	1
0	10769	3592.329927430926	0
0	10789	3597.399994928973	1
0	10790	3597.633190647439	0
0	10801	3599.429933873544	1
0	10807	3603.185699749236	0
0	10819	3605.009904431043	1
0	10824	3615.167807227065	0
0	10850	3620.844588004455	1
0	10851	3620.845218376872	0
0	10865	3622.002542163844	1
0	10868	3622.943627180165	0
0	10874	3623.151651959962	1
0	10875	3623.536581654462	0
0	10892	3631.04298844594	1
0	10895	3634.352649370703	0
0	10914	3641.606063315074	1
0	10918	3642.390673835493	2
0	10919	3642.756413766482	1
0	10926	3648.706884362489	2
0	10928	3649.49213333238	3
0	10930	3649.66978570051	4
0	10931	3652.415273076642	3
0	10937	3652.470650193109	4
0	10943	3658.082942656042	3
0	10952	3660.470261272102	2
0	10957	3660.82980236869	1
0	10963	3661.975153219949	2
0	10964	3662.099237771269	1
0	10973	3663.061502180388	0
0	10981	3666.144070857228	1
0	10982	3666.753621348816	0
0	10993	3667.032667285181	1
0	10994	3667.112842634013	0
0	11003	3667.390324661185	1
0	11009	3668.922020095206	0
0	11022	3670.667953033431	1
0	11024	3671.786444720123	0
0	11039	3674.391446506318	1
0	11041	3677.552777887396	2
0	11046	3678.869076484664	3
0	11047	3678.93977533732	2
0	11052	3680.779028422605	1
0	11056	3681.420694308586	2
0	11062	3683.192506691476	3
0	11064	3683.2874671699	4
0	11065	3685.21217148853	3
0	11072	3687.349834837985	4
0	11073	3687.871601409283	3
0	11081	3693.458054553227	4
0	11082	3693.815024143182	3
0	11090	3693.911299674154	4
0	11092	3695.87046401204	3
0	11099	3700.906129719504	4
0	11100	3702.601431428701	3
0	11106	3708.832812776686	2
0	11111	3709.369403220068	1
0	11117	3709.906373414635	2
0	11119	3710.061374291504	3
0	11120	3710.416966573268	2
0	11125	3711.425511911839	1
0	11133	3714.274929379634	0
0	11156	3717.337875010722	1
0	11159	3717.685151828432	2
0	11161	3718.646480279652	3
0	11163	3719.113390690952	4
0	11164	3724.071489814397	3
0	11174	3729.525460627092	4
0	11176	3729.941533665862	5
0	11179	3734.435337887097	4
0	11184	3734.534161557535	3
0	11190	3736.947271516081	2
0	11202	3738.521511736964	3
0	11203	3738.685998698505	2
0	11213	3740.254752237662	1
0	11219	3740.305091013932	0
0	11239	3745.411353215041	1
0	11241	3748.30595851567	2
0	11242	3748.766673104625	1
0	11248	3752.806244051322	0
0	11268	3759.173474157055	1
0	11271	3763.815085825141	0
0	11280	3766.34553735008	1
0	11283	3768.229526571647	0
0	11346	3791.926614541498	1
0	11349	3798.906335738647	0
0	11361	3799.579685340925	1
0	11363	3799.746781772952	2
0	11365	3807.919050634483	1
0	11372	3809.730403878228	0
0	11379	3811.195523504826	1
0	11381	3811.593032294768	2
0	11382	3811.634318299514	1
0	11387	3811.786262620479	0
0	11394	3812.359650223734	1
0	11395	3812.782944394239	0
0	11438	3828.11799439831	1
0	11440	3828.38734184036	2
0	11442	3828.748660707881	1
0	11447	3829.488171285422	0
0	11480	3841.745686065415	1
0	11481	3842.049425168087	0
0	11510	3855.836130702565	1
0	11512	3856.154295433846	2
0	11514	3857.556946343223	3
0	11518	3858.639283221739	4
0	11524	3861.235959393718	5
0	11526	3861.510000248898	6
0	11527	3861.985424945561	5
0	11532	3863.028608570227	4
0	11538	3865.768643875484	3
0	11546	3866.923737364522	4
0	11547	3867.261442822137	3
0	11554	3869.283800377348	4
0	11559	3874.293670999774	5
0	11562	3875.114387569944	6
0	11564	3876.32296540679	7
0	11565	3877.750134039314	6
0	11575	3882.462271764757	7
0	11576	3883.735298969112	6
0	11584	3886.909269704788	5
0	11591	3889.350534041432	6
0	11593	3892.249136119589	7
0	11596	3894.505721506469	6
0	11601	3895.521662662881	5
0	11607	3896.13823814299	6
0	11608	3896.699189640402	5
0	11614	3897.713959084222	6
0	11617	3898.012405596546	7
0	11620	3898.531492355683	8
0	11621	3899.082244397384	7
0	11629	3899.767095855968	8
0	11630	3901.08771694537	7
0	11638	3903.339123166262	6
0	11643	3904.485206804956	5
0	11655	3909.58909505956	4
0	11661	3910.200188109676	3
0	11668	3912.147321330628	4
0	11670	3912.957354550629	5
0	11672	3917.151477342042	6
0	11674	3919.303359624716	7
0	11676	3919.53026897736	8
0	11677	3923.606109251958	7
0	11683	3926.785412344756	6
0	11689	3927.230524065853	7
0	11690	3927.287730971082	6
0	11696	3928.869764459319	7
0	11700	3931.320176303156	8
0	11701	3934.338588920234	7
0	11707	3936.104674843679	6
0	11713	3936.793160706049	5
0	11719	3936.990117307763	6
0	11724	3937.894507910807	7
0	11726	3938.113086539992	8
0	11728	3938.888093847595	9
0	11729	3939.880681554492	8
0	11734	3940.729609650113	7
0	11740	3944.406772355307	8
0	11742	3945.347813696661	9
0	11743	3945.743981904203	8
0	11749	3946.807774579658	9
0	11750	3946.836961430043	8
0	11756	3947.66489341919	9
0	11758	3948.3041665472	8
0	11763	3948.626662231883	7
0	11770	3952.532018416668	6
0	11782	3955.692488633776	7
0	11783	3955.902657867163	6
0	11789	3956.213794235231	7
0	11791	3956.426479410595	8
0	11793	3957.462961085127	9
0	11794	3958.176072945048	8
0	11801	3960.864799677917	9
0	11802	3964.129268579324	8
0	11807	3964.238920027295	7
0	11812	3965.138593818254	6
0	11816	3968.63810903552	7
0	11818	3971.788983434327	8
0	11822	3972.763897896613	7
0	11828	3972.859430544789	8
0	11830	3974.025227728346	9
0	11831	3974.284484530223	8
0	11836	3975.029240409598	7
0	11840	3976.004972488192	8
0	11842	3976.160528897267	9
0	11848	3978.641619675955	10
0	11849	3979.092071656572	9
0	11855	3980.698310975233	10
0	11857	3981.134648348485	11
0	11864	3983.654409916153	10
0	11868	3984.47935528362	11
0	11872	3984.889255226948	12
0	11879	3990.386008592714	11
0	11885	3990.878856340252	10
0	11891	3992.607368947705	9
0	11897	3993.209950536614	10
0	11901	3995.409381482692	9
0	11908	3997.283747413563	10
0	11909	3998.88529767709	9
0	11919	4003.119896254493	8
0	11924	4003.148164452024	7
0	11929	4003.219623335865	6
0	11935	4003.434775377635	7
0	11937	4003.524630566917	8
0	11938	4003.665932043402	7
0	11943	4004.065050250653	6
0	11949	4005.16438476984	7
0	11951	4006.635614766102	6
0	11956	4007.630337806967	5
0	11964	4016.826004148455	6
0	11966	4016.882511923484	7
0	11967	4018.008437788265	6
0	11971	4018.109756912185	7
0	11976	4020.270207754029	6
0	11980	4020.352040835722	7
0	11989	4023.839393401156	6
0	11995	4026.153372575765	5
0	12001	4027.937396809446	4
0	12006	4028.12207564836	3
0	12013	4031.7008881608	2
0	12019	4032.532885212436	1
0	12024	4032.609364737299	0
0	12050	4035.515447302689	1
0	12053	4042.377810330446	0
0	12060	4043.73922482971	1
0	12061	4044.772149145069	0
0	12085	4052.145269802282	1
0	12088	4055.274737173682	0
0	12094	4055.927979222481	1
0	12095	4056.299562343766	0
0	12116	4064.482431888523	1
0	12120	4067.107256437488	2
0	12123	4068.198833038495	1
0	12130	4069.302625574477	0
0	12143	4072.825297175952	1
0	12144	4074.620034736102	0
0	12172	4086.771745906678	1
0	12173	4087.175812459058	0
0	12200	4095.588499669793	1
0	12202	4096.083926338278	2
0	12205	4098.407303720315	1
0	12210	4098.998443541377	0
0	12223	4104.421282630562	1
0	12225	4105.805966747746	2
0	12226	4108.770702915921	1
0	12232	4110.646180062507	0
0	12239	4112.340175534787	1
0	12240	4112.349096377421	0
0	12250	4112.879552318164	1
0	12252	4112.979116958112	2
0	12256	4114.185891861918	3
0	12268	4122.550512958981	2
0	12274	4123.288030697284	1
0	12280	4126.815731519384	2
0	12282	4128.999713802703	3
0	12285	4132.862432860105	2
0	12291	4134.781862535378	1
0	12298	4136.599144447068	2
0	12300	4137.030686647936	3
0	12302	4139.952978173208	2
0	12307	4141.215033787555	1
0	12314	4142.512081435265	0
0	12333	4147.515865056001	1
0	12336	4148.19373724879	2
0	12342	4151.961769679875	3
0	12343	4152.535276986781	2
0	12350	4158.567223474834	3
0	12351	4160.073688404352	2
0	12356	4160.45447178623	1
0	12364	4166.825294181219	2
0	12365	4167.020625783809	1
0	12373	4168.005883816702	0
0	12380	4168.666601230623	1
0	12381	4168.747678228678	0
0	12390	4172.51401246345	1
0	12391	4172.578084089258	0
0	12404	4173.819272466088	1
0	12406	4176.66464958606	0
0	12419	4180.463492777947	1
0	12420	4180.991973093378	0
0	12432	4185.225776930007	1
0	12433	4185.608862577192	0
0	12450	4188.357909488977	1
0	12451	4188.581255045206	0
0	12460	4189.000619987138	1
0	12466	4191.568531500693	2
0	12470	4192.501342624906	3
0	12471	4193.103926718044	2
0	12480	4196.910431590754	1
0	12485	4196.919068402794	0
0	12510	4202.830819463173	1
0	12511	4203.410205986861	0
0	12523	4206.143914355118	1
0	12524	4206.840833184628	0
0	12538	4209.4726482515	1
0	12540	4209.758645002331	2
0	12541	4210.420358905327	1
0	12546	4210.592830237879	0
0	12554	4210.777807688929	1
0	12556	4210.974284081238	2
0	12558	4211.208221815258	1
0	12563	4212.061380679499	0
0	12569	4213.043168799362	1
0	12570	4214.09942586258	0
0	12584	4215.419334942223	1
0	12586	4215.895462085134	2
0	12591	4217.929984515228	3
0	12593	4217.994866077223	4
0	12594	4219.138253278156	3
0	12600	4219.739935539687	2
0	12608	4220.36402779559	1
0	12615	4220.51760054049	2
0	12616	4220.756204045039	1
0	12625	4223.450880673764	2
0	12628	4224.570524300634	3
0	12630	4225.269757637942	4
0	12634	4227.664283870491	3
0	12640	4228.006033972467	2
0	12646	4228.534819209097	3
0	12647	4228.972880388033	2
0	12659	4231.90163179407	1
0	12664	4233.120337935099	0
0	12671	4234.434495291616	1
0	12672	4235.92324312078	0
0	12686	4237.599624663515	1
0	12687	4237.724591587216	0
0	12701	4241.767908993335	1
0	12702	4244.143215672304	0
0	12729	4251.13835718492	1
0	12730	4251.910482199044	0
0	12737	4252.803102541595	1
0	12738	4253.79158017991	0
0	12748	4261.995540330096	1
0	12752	4263.804779647364	2
0	12754	4263.849446055214	3
0	12755	4266.313473829737	2
0	12760	4266.63565186487	1
0	12765	4268.903623685432	0
0	12782	4272.834187365885	1
0	12796	4282.973903873917	0
0	12827	4289.626230068861	1
0	12829	4290.531688241173	2
0	12830	4290.577903766682	1
0	12835	4290.696050637026	0
0	12852	4295.095856033727	1
0	12854	4296.777395256875	0
0	12886	4311.3271331361	1
0	12888	4312.116258736523	2
0	12894	4315.166167435972	3
0	12896	4315.282973621698	4
0	12898	4316.790634898894	5
0	12901	4318.468977394842	4
0	12908	4318.991494544439	5
0	12909	4322.70026915375	4
0	12915	4323.403600962122	3
0	12921	4324.917133554623	4
0	12922	4325.258054788701	3
0	12930	4327.655396372436	2
0	12938	4328.096591594101	3
0	12940	4329.480230800242	2
0	12946	4330.135657219839	3
0	12950	4331.189244174894	4
0	12952	4331.987258192653	5
0	12954	4334.287339757297	4
0	12965	4343.989776442847	5
0	12966	4345.81829020947	4
0	12971	4347.318997376934	3
0	12980	4348.905710177858	4
0	12981	4349.190500381171	3
0	12989	4349.849181222343	2
0	12994	4350.917359609051	1
0	13002	4353.486168810988	0
0	13021	4356.749309748278	1
0	13022	4358.715513215666	0
0	13065	4373.849488978255	1
0	13066	4375.616905588275	0
0	13076	4377.767665800996	1
0	13079	4381.882769107787	0
0	13090	4384.310740835312	1
0	13092	4384.59931548947	2
0	13094	4384.993762980593	3
0	13098	4386.323851849698	2
0	13103	4386.374333266957	1
0	13110	4387.374168989151	0
0	13119	4392.383972329772	1
0	13120	4396.061065893421	0
0	13127	4398.021756108853	1
0	13128	4400.250102951027	0
0	13149	4411.603180347704	1
0	13152	4416.2059350723	0
0	13158	4416.400010679949	1
0	13160	4417.440498893713	2
0	13166	4418.214404196361	1
0	13173	4418.865970620115	0
0	13187	4420.294191296147	1
0	13192	4422.029647468345	0
0	13204	4425.180727002846	1
0	13206	4425.30899543286	2
0	13208	4426.167555483141	1
0	13213	4426.501405769352	0
0	13219	4428.143187732504	1
0	13220	4429.034509832438	0
0	13244	4433.85740941102	1
0	13245	4434.34580495499	0
0	13259	4439.217874531396	1
0	13264	4441.869642627338	2
0	13265	4442.679657671342	1
0	13270	4443.107590102717	0
0	13283	4446.478529395414	1
0	13285	4446.969282528603	2
0	13286	4447.136648415274	1
0	13297	4451.097993174402	0
0	13303	4451.610932011027	1
0	13305	4452.187086502296	2
0	13306	4452.247189397097	1
0	13313	4453.91122624147	0
0	13335	4462.625895521466	1
0	13338	4463.903169503498	0
0	13346	4463.982149457858	1
0	13349	4467.470488977636	0
0	13357	4468.325423674006	1
0	13363	4472.506738071737	2
0	13364	4472.990965740932	1
0	13369	4473.206815828936	0
0	13385	4474.501326331904	1
0	13389	4478.262831458734	2
0	13390	4478.936869400312	1
0	13395	4479.109353495036	0
0	13419	4486.132967087002	1
0	13423	4487.272803441285	2
0	13424	4488.753952408903	1
0	13430	4492.199724087221	0
0	13437	4493.059133415798	1
0	13438	4494.010279809349	0
0	13459	4502.070016969199	1
0	13463	4503.342537306137	2
0	13464	4503.799162272812	1
0	13471	4504.426956019018	2
0	13473	4504.487196510367	3
0	13475	4504.490930335872	4
0	13477	4505.445030407174	5
0	13479	4507.05465688551	6
0	13482	4509.82805533651	5
0	13488	4510.253837077934	4
0	13494	4512.155939054855	3
0	13503	4514.643243900022	4
0	13506	4515.790294593995	3
0	13514	4518.628366346654	2
0	13520	4518.999154956249	3
0	13524	4522.282796383252	4
0	13525	4522.956875650109	3
0	13535	4526.415752949034	2
0	13540	4526.431137857204	1
0	13545	4526.732208677882	0
0	13562	4533.207669414982	1
0	13563	4534.086782524795	0
0	13575	4535.334576420116	1
0	13576	4537.122416479239	0
0	13596	4542.795017602301	1
0	13602	4543.299229334022	2
0	13603	4543.344304904695	1
0	13615	4546.875455504357	0
0	13625	4551.360787993985	1
0	13626	4551.51325501446	0
0	13633	4552.32143262406	1
0	13634	4553.361674344974	0
0	13645	4553.616612630536	1
0	13646	4554.052981015631	0
0	13652	4554.90762525455	1
0	13655	4555.118119587328	0
0	13713	4575.035229486686	1
0	13716	4575.71642061414	0
0	13725	4578.873242286396	1
0	13728	4579.03388820782	0
0	13735	4579.638453361436	1
0	13737	4580.88240503792	0
0	13754	4586.154013580487	1
0	13758	4587.90636518198	2
0	13761	4589.532465789995	1
0	13768	4589.775214832767	0
0	13776	4590.975298611962	1
0	13778	4591.882240494203	2
0	13780	4594.335734623608	3
0	13782	4595.981044799567	2
0	13788	4596.765515429159	3
0	13796	4602.708010422965	2
0	13804	4606.443852402427	1
0	13810	4606.578524651075	2
0	13812	4607.56501338294	3
0	13814	4607.722905333863	4
0	13820	4612.592805153183	3
0	13826	4613.191108482759	4
0	13827	4613.21485826925	3
0	13837	4617.71689564793	4
0	13838	4619.547870363641	3
0	13845	4620.379879081027	2
0	13851	4622.044130883141	3
0	13853	4622.35517745692	4
0	13854	4624.137595768871	3
0	13860	4626.198892725274	2
0	13865	4627.697296971521	1
0	13872	4627.95836501612	2
0	13874	4629.055918837295	1
0	13880	4631.076491468467	0
0	13886	4631.238731839028	1
0	13887	4631.338520623201	0
0	13894	4632.847529514743	1
0	13895	4634.489389673788	0
0	13914	4637.341901874899	1
0	13916	4637.449920776302	2
0	13917	4637.592369455266	1
0	13922	4639.202471448504	0
0	13945	4643.728457431715	1
0	13947	4643.988729608787	0
0	13953	4644.014537476528	1
0	13955	4645.858795119129	0
0	13961	4646.064598550084	1
0	13966	4649.973790215675	2
0	13967	4650.566188136597	1
0	13973	4651.376733963222	2
0	13975	4652.31868979485	1
0	13981	4653.406059244535	2
0	13983	4659.440650165173	1
0	13988	4659.53370181654	0
0	14001	4663.686200335604	1
0	14006	4668.492091703502	0
0	14026	4674.241611926539	1
0	14027	4677.978913113097	0
0	14034	4678.655158847776	1
0	14035	4679.096904635744	0
0	14041	4681.253882850239	1
0	14042	4681.469129934483	0
0	14066	4689.169351347699	1
0	14069	4690.315007282056	0
0	14105	4705.244446877416	1
0	14107	4705.823032315165	2
0	14108	4706.273754515934	1
0	14114	4708.000278555901	0
0	14170	4722.978222065633	1
0	14173	4724.172324625605	0
0	14189	4725.318332671033	1
0	14191	4728.435481847531	2
0	14194	4728.783413912416	1
0	14199	4728.791194755582	0
0	14205	4728.832764210577	1
0	14210	4731.242602854907	2
0	14212	4732.686803074134	3
0	14214	4733.490057932289	4
0	14217	4737.623341629757	3
0	14224	4739.722206982924	2
0	14230	4742.474428584666	1
0	14236	4743.029356786726	0
0	14242	4743.317516468702	1
0	14244	4744.608672256171	0
0	14268	4750.544077099026	1
0	14271	4751.826521883842	0
0	14306	4762.048866454348	1
0	14308	4762.988623954696	2
0	14309	4763.88343038392	1
0	14314	4765.386602645716	0
0	14363	4776.737504972288	1
0	14365	4777.556977391655	2
0	14367	4777.756222210552	3
0	14371	4780.628623868252	4
0	14376	4785.361110947516	3
0	14383	4786.110449080549	2
0	14390	4787.399872498064	3
0	14391	4788.562400407904	2
0	14396	4788.714129968256	1
0	14405	4791.71781117711	2
0	14407	4791.869193296411	1
0	14413	4796.05926922354	0
0	14419	4796.70069222709	1
0	14422	4799.282878838949	2
0	14423	4799.526191244463	1
0	14429	4800.952095624597	0
0	14458	4807.683076160757	1
0	14459	4809.008319601094	0
0	14465	4809.836564924421	1
0	14467	4810.87040608928	0
0	14478	4812.231240590423	1
0	14481	4814.098938573985	2
0	14483	4815.227064646978	3
0	14485	4815.342472781433	4
0	14487	4818.206956503919	5
0	14491	4819.476225745164	6
0	14493	4826.045062934817	7
0	14495	4826.578076164842	8
0	14499	4830.546404143092	9
0	14500	4833.013328646892	8
0	14506	4833.626685438691	9
0	14508	4834.170733540139	8
0	14516	4835.2407899169	9
0	14518	4835.603558429226	10
0	14519	4836.262883207643	9
0	14524	4836.555849951058	8
0	14529	4837.03957073339	7
0	14534	4837.060796080118	6
0	14539	4837.542506828541	5
0	14543	4842.861436666213	6
0	14545	4843.556495804409	7
0	14549	4845.347238196988	8
0	14551	4848.000506741499	7
0	14559	4849.209929658356	6
0	14565	4850.082439966134	7
0	14572	4852.491979194032	6
0	14578	4854.067387434022	7
0	14581	4857.179447574227	6
0	14586	4857.809005568814	5
0	14596	4860.186160709091	6
0	14597	4860.954137441154	5
0	14602	4861.038004003075	4
0	14607	4861.978928251368	3
0	14615	4864.308464399696	4
0	14618	4865.620957985193	5
0	14619	4866.689783812469	4
0	14624	4867.236224001654	3
0	14633	4867.64283368139	4
0	14635	4868.467952191742	3
0	14643	4868.959322556147	4
0	14644	4869.334138058672	3
0	14649	4869.643619085444	2
0	14659	4883.061235490701	1
0	14666	4883.766443426155	0
0	14673	4884.417927533988	1
0	14674	4884.687629784466	0
0	14700	4890.016909417942	1
0	14701	4891.243927382439	0
0	14725	4897.259592011327	1
0	14728	4899.726485861211	0
0	14744	4904.276145915058	1
0	14748	4908.539965039283	0
0	14777	4921.319520193652	1
0	14778	4921.582093673729	0
0	14785	4923.379549634787	1
0	14786	4925.574395791161	0
0	14796	4927.373896536092	1
0	14799	4930.104275793436	0
0	14816	4939.074014040026	1
0	14818	4941.735547992764	2
0	14820	4943.265814191363	3
0	14825	4946.938278191377	2
0	14834	4949.444950444632	1
0	14839	4949.610179532289	0
0	14854	4952.600002669527	1
0	14855	4953.164423420219	0
0	14861	4954.123621047509	1
0	14864	4957.138750984111	2
0	14866	4957.6917831438	3
0	14867	4959.064190467869	2
0	14872	4959.869444670341	1
0	14877	4960.577605202017	0
0	14887	4962.671891157514	1
0	14892	4965.316508481055	0
0	14902	4966.795138577585	1
0	14905	4969.423821666562	0
0	14917	4970.567593467498	1
0	14920	4971.534440961779	0
0	14971	4992.351438429416	1
0	14976	4993.714970338077	0
0	14990	4999.276089249745	1
0	14992	4999.851368933469	2
0	14993	5000.831267305927	1
0	14999	5001.853261102161	0
0	15007	5003.117465315936	1
0	15013	5006.635597371178	2
0	15015	5007.065414162325	3
0	15016	5007.192048407155	2
0	15023	5009.737662899753	3
0	15025	5009.8573203807	4
0	15026	5010.191247914535	3
0	15032	5010.825816324929	4
0	15033	5012.189853122753	3
0	15039	5014.290999368819	2
0	15046	5017.790472721635	1
0	15052	5018.502572737034	2
0	15053	5018.506321490537	1
0	15058	5019.750006998317	0
0	15065	5021.23433231368	1
0	15066	5022.143881239759	0
0	15105	5038.879543405559	1
0	15108	5040.594559981854	0
0	15133	5049.087332358039	1
0	15135	5049.589336687533	2
0	15137	5052.404523556247	3
0	15138	5055.288970741253	2
0	15143	5055.793138981365	1
0	15148	5056.679241973291	0
0	15173	5061.796598604458	1
0	15177	5062.703956035057	2
0	15180	5065.192186410136	1
0	15189	5068.26854556659	0
0	15206	5075.662344438623	1
0	15213	5082.236991077057	0
0	15219	5082.646706394813	1
0	15221	5086.23860128983	0
0	15227	5086.506640709051	1
0	15228	5087.487035979861	0
0	15251	5094.161435400901	1
0	15253	5095.751873658772	2
0	15254	5097.537898073676	1
0	15260	5098.241536813489	2
0	15263	5099.68401674047	3
0	15265	5101.392145789621	2
0	15271	5103.913821144933	3
0	15272	5103.96264593852	2
0	15281	5107.027673087883	3
0	15284	5110.083301195355	4
0	15285	5110.519325473889	3
0	15292	5114.141271202267	4
0	15293	5114.382409586868	3
0	15299	5115.989941906636	2
0	15304	5117.442928304878	1
0	15313	5119.617662319083	2
0	15314	5119.841326396697	1
0	15320	5120.982045658384	0
0	15326	5121.249093904234	1
0	15327	5121.3607646918	0
0	15334	5123.425711837108	1
0	15340	5126.626090395572	0
0	15352	5127.599704438675	1
0	15353	5128.080498965918	0
0	15360	5128.800971669707	1
0	15363	5130.100959103932	2
0	15369	5133.902815050824	3
0	15370	5134.75267159873	2
0	15375	5134.770916729154	1
0	15381	5134.893622588154	2
0	15383	5135.883175791595	3
0	15385	5136.399756522684	4
0	15387	5137.328404458859	3
0	15392	5138.354694435616	2
0	15397	5138.702040741207	1
0	15402	5139.216708025498	0
0	15415	5144.72295403373	1
0	15417	5148.353991879849	0
0	15435	5153.682960207267	1
0	15437	5157.620261618068	0
0	15451	5158.369963020032	1
0	15454	5160.128943164529	0
0	15493	5166.001947637603	1
0	15496	5167.099449540306	0
0	15529	5180.18547595334	1
0	15531	5190.17352139112	2
0	15532	5190.602409414812	1
0	15541	5192.158349378269	2
0	15543	5193.986309575457	3
0	15544	5194.4751276489	2
0	15551	5196.110180612867	3
0	15552	5196.131363115708	2
0	15557	5196.282838798968	1
0	15563	5200.336267003317	2
0	15569	5207.573164451916	1
0	15577	5208.303238489086	2
0	15578	5208.34199228512	1
0	15585	5208.696038142826	0
0	15601	5209.911505467268	1
0	15606	5212.628729924675	0
0	15613	5213.319135821232	1
0	15614	5213.364497277057	0
0	15629	5216.672823755167	1
0	15631	5216.732926669172	2
0	15632	5216.943864540449	1
0	15641	5219.156220151045	0
0	15670	5228.728614941314	1
0	15682	5231.51563147767	2
0	15683	5233.225579361813	1
0	15690	5234.364032168562	0
0	15717	5244.144110433958	1
0	15718	5245.381866165956	0
0	15731	5249.383652440848	1
0	15732	5249.587059065044	0
0	15738	5249.920208210271	1
0	15744	5258.282445739625	0
0	15756	5259.625180167409	1
0	15757	5259.921045278138	0
0	15774	5267.519455652579	1
0	15777	5268.168562616871	0
0	15790	5275.758742265997	1
0	15791	5276.266821035984	0
0	15808	5283.8446437993	1
0	15809	5284.035003190109	0
0	15838	5291.859059603507	1
0	15839	5291.903645275906	0
0	15845	5291.978916783865	1
0	15848	5292.306594389839	2
0	15850	5293.93703211047	1
0	15856	5295.004213691384	0
0	15881	5301.092716373306	1
0	15882	5302.870081897882	0
0	15893	5305.321440033014	1
0	15897	5306.666927710698	0
0	15916	5310.938044389544	1
0	15918	5312.32057895065	0
0	15932	5313.923415700199	1
0	15939	5318.636911601715	0
0	15945	5318.915591892781	1
0	15946	5318.919985560206	0
0	15955	5320.674917522207	1
0	15961	5321.482812677322	2
0	15965	5323.287979184997	1
0	15970	5324.040049137689	0
0	15977	5324.908773674112	1
0	15980	5325.912355075446	2
0	15984	5330.846284593636	1
0	15989	5332.063529013556	0
0	16009	5337.120258977135	1
0	16013	5341.812952248911	0
0	16026	5342.482589239012	1
0	16027	5342.623522826125	0
0	16044	5348.611285623115	1
0	16049	5350.819524006911	0
0	16063	5355.854929281218	1
0	16064	5356.377675957561	0
0	16083	5362.676380506902	1
0	16086	5363.534542784875	0
0	16103	5368.979406412556	1
0	16107	5369.769196799817	2
0	16108	5373.027253312136	1
0	16117	5376.116911969696	2
0	16119	5378.393343957338	3
0	16121	5378.995372823299	4
0	16124	5382.851378018551	3
0	16130	5384.113373053195	2
0	16136	5386.327357278785	1
0	16143	5387.750399668087	0
0	16169	5394.782764570004	1
0	16171	5395.019164554212	2
0	16173	5397.566878789879	3
0	16174	5398.212314738812	2
0	16180	5400.593491113867	1
0	16187	5401.894315725992	0
0	16219	5412.475093225932	1
0	16222	5414.718779675181	0
0	16228	5414.73711713162	1
0	16230	5414.740774721298	2
0	16231	5414.861899532025	1
0	16238	5415.301612478842	2
0	16242	5417.202544182288	1
0	16247	5417.979214225674	0
0	16271	5426.155476727804	1
0	16272	5428.48504446926	0
0	16286	5435.685220091616	1
0	16287	5436.104304487463	0
0	16304	5441.864732663519	1
0	16307	5445.315122781875	0
0	16329	5454.866489797827	1
0	16335	5456.546285400173	2
0	16338	5458.756360069851	1
0	16346	5462.395320418598	2
0	16348	5462.517268739119	3
0	16349	5462.648192332795	2
0	16358	5463.425417618071	3
0	16359	5463.995622648829	2
0	16368	5468.639794981072	3
0	16370	5468.930686101804	4
0	16371	5469.162663244612	3
0	16376	5469.63613810858	2
0	16386	5473.624184850392	3
0	16388	5478.807800499228	2
0	16394	5480.780148270124	3
0	16396	5481.100583897088	2
0	16404	5483.103532491306	1
0	16411	5486.499161353935	2
0	16412	5486.740235527161	1
0	16421	5489.373964700681	2
0	16425	5491.181279408875	3
0	16427	5491.685680127119	4
0	16431	5494.730534781904	3
0	16438	5495.940225318485	4
0	16440	5497.237119920354	5
0	16441	5497.760108833159	4
0	16447	5498.307013031872	5
0	16450	5500.888034503591	6
0	16451	5500.914976924306	5
0	16458	5504.259943688645	4
0	16465	5507.196149221974	5
0	16467	5507.661041199726	6
0	16472	5510.913114097751	5
0	16477	5511.118060460065	4
0	16482	5511.439004447323	3
0	16488	5511.607947967879	4
0	16489	5512.30950642157	3
0	16495	5513.921650446245	2
0	16501	5514.254310953195	1
0	16507	5514.915042647872	2
0	16508	5515.045066182712	1
0	16513	5516.196890760988	0
0	16524	5518.42547674236	1
0	16526	5518.612150184677	2
0	16536	5525.8283185677	1
0	16542	5526.2545086203	0
0	16574	5532.481575148292	1
0	16575	5533.403001788575	0
0	16582	5533.500231648987	1
0	16584	5534.923016709406	2
0	16586	5535.488563207984	3
0	16588	5536.776040827476	4
0	16589	5538.471967692511	3
0	16595	5539.238984730041	2
0	16604	5540.967983445838	1
0	16613	5541.817514813882	0
0	16629	5547.022448594333	1
0	16632	5548.688050855848	0
0	16648	5549.367616984711	1
0	16650	5550.46180951589	0
0	16666	5558.207233097802	1
0	16670	5559.78915362562	2
0	16673	5561.768420497437	1
0	16679	5562.33360992971	0
0	16690	5564.305131010754	1
0	16697	5569.87649056118	2
0	16698	5570.41587878258	1
0	16707	5572.333422188049	0
0	16748	5584.448055867136	1
0	16750	5588.634343581414	0
0	16761	5589.050052750377	1
0	16766	5592.288545252539	2
0	16768	5592.772287401174	3
0	16769	5592.908259213285	2
0	16776	5593.852252439331	3
0	16778	5594.10522138538	2
0	16787	5595.843658399225	3
0	16788	5596.896597967363	2
0	16794	5597.168415400404	1
0	16799	5598.029294239848	0
0	16828	5608.69900097819	1
0	16829	5609.17868355528	0
0	16847	5619.037159376814	1
0	16849	5620.472084795482	2
0	16850	5623.151267050303	1
0	16859	5624.652132554782	0
0	16878	5633.272052374727	1
0	16879	5636.501091627452	0
0	16885	5637.293453151605	1
0	16887	5640.535615961294	0
0	16901	5642.81733165801	1
0	16903	5643.236963763701	2
0	16904	5643.572177266168	1
0	16912	5645.140744943915	2
0	16914	5645.571764386783	1
0	16919	5646.726810787066	0
0	16940	5653.07303061183	1
0	16945	5654.349180023996	2
0	16947	5656.15483548797	3
0	16948	5657.546205201821	2
0	16954	5658.854111883951	3
0	16955	5660.035061246944	2
0	16961	5662.525218850132	1
0	16969	5663.27161663487	2
0	16971	5664.738299723361	1
0	16977	5665.892143883844	2
0	16979	5667.668009523009	3
0	16981	5668.159620168129	2
0	16986	5669.102205215008	1
0	16991	5669.201822481842	0
0	17008	5671.193715982759	1
0	17013	5672.539045828323	2
0	17016	5675.946788785695	1
0	17021	5676.13358148728	0
0	17048	5682.096350329519	1
0	17051	5683.773712539844	0
0	17063	5686.258271312449	1
0	17064	5687.900242381499	0
0	17071	5688.927576447467	1
0	17073	5689.931034650046	2
0	17076	5690.820922539417	1
0	17082	5692.053389031703	0
0	17095	5695.101588834763	1
0	17103	5699.364114882754	2
0	17104	5699.440034853445	1
0	17110	5701.044470126634	0
0	17132	5704.1356792924	1
0	17136	5707.962289551661	0
0	17162	5716.75145928116	1
0	17166	5719.332509356965	2
0	17167	5720.165397972652	1
0	17175	5721.166508535957	2
0	17177	5722.374349741718	3
0	17179	5724.367539886409	2
0	17184	5725.983199782834	1
0	17193	5727.233012242026	2
0	17195	5728.732539536496	3
0	17197	5729.169482107236	2
0	17204	5732.19725288601	3
0	17205	5732.696801568436	2
0	17211	5735.593565991935	3
0	17212	5736.955512090086	2
0	17219	5737.616072252895	3
0	17220	5737.78240683149	2
0	17226	5738.117910270629	3
0	17228	5738.554407922214	4
0	17230	5738.64882301289	5
0	17236	5743.43390947614	6
0	17238	5743.612656425095	7
0	17241	5744.244183742482	8
0	17243	5744.999352896526	9
0	17244	5745.010565885273	8
0	17250	5745.791072819198	7
0	17255	5746.897460059844	6
0	17260	5747.210068848778	5
0	17267	5747.958515740834	6
0	17271	5751.19220634029	5
0	17277	5751.692562628461	6
0	17281	5752.361683623823	7
0	17282	5752.582907696052	6
0	17287	5754.206574295687	5
0	17292	5756.245013282636	4
0	17297	5757.480385980535	3
0	17303	5758.970220463371	4
0	17305	5759.385543465216	5
0	17308	5760.220638383546	4
0	17314	5760.700744456577	5
0	17316	5761.219165087748	6
0	17317	5763.049461091767	5
0	17322	5764.414777694984	4
0	17329	5766.637067742676	3
0	17334	5766.827709034533	2
0	17339	5766.978478255606	1
0	17344	5772.923623697425	0
0	17374	5778.394654872242	1
0	17377	5778.769433777214	2
0	17379	5780.974368820259	3
0	17380	5781.142653740269	2
0	17389	5782.44255616828	1
0	17394	5782.474487516958	0
0	17405	5784.213475908603	1
0	17407	5785.062867222288	2
0	17408	5785.462087272644	1
0	17414	5787.817294605065	0
0	17428	5793.698308531759	1
0	17432	5799.01801231379	2
0	17445	5809.953378599881	1
0	17452	5811.66953907584	0
0	17458	5812.761497151538	1
0	17460	5812.991572809136	2
0	17461	5814.177878818122	1
0	17469	5815.519610449305	0
0	17475	5815.97007747058	1
0	17479	5818.18143910097	0
0	17494	5822.469700503385	1
0	17496	5824.48434481972	2
0	17499	5826.935030227606	3
0	17501	5827.526210853615	4
0	17502	5827.897752133248	3
0	17511	5830.538547233436	4
0	17513	5831.305756935593	5
0	17516	5833.242089044988	4
0	17522	5834.802314357986	5
0	17524	5836.887152125819	6
0	17526	5838.049317868658	7
0	17527	5838.847430837332	6
0	17534	5840.860424746129	7
0	17536	5842.89476053732	6
0	17542	5844.379722451191	7
0	17543	5844.382180776533	6
0	17550	5845.450619124067	5
0	17556	5847.127958917456	4
0	17566	5849.47356346632	5
0	17567	5850.494928858529	4
0	17572	5850.985518952871	3
0	17577	5851.356035702951	2
0	17584	5851.903919605736	1
0	17591	5853.526661629733	2
0	17594	5855.703511032547	3
0	17596	5856.051643974497	2
0	17602	5856.116179715871	3
0	17603	5857.027562643364	2
0	17614	5859.032776564321	3
0	17616	5860.992473870499	4
0	17619	5862.596788827166	3
0	17625	5862.814943008978	4
0	17634	5869.322348731731	3
0	17642	5871.648066207693	2
0	17649	5871.850339603788	3
0	17651	5872.368923400621	4
0	17652	5874.109855676262	3
0	17658	5876.499949499544	2
0	17664	5879.80765934356	1
0	17670	5880.529662903054	2
0	17672	5881.722044594347	1
0	17677	5881.861943262649	0
0	17690	5883.916588557083	1
0	17692	5886.681436381057	0
0	17725	5891.56063783984	1
0	17726	5891.685510493403	0
0	17746	5897.775864751331	1
0	17747	5897.877368955728	0
0	17754	5902.386003102018	1
0	17755	5903.202450871129	0
0	17781	5909.835155383727	1
0	17783	5910.911499298599	2
0	17785	5911.070854348828	3
0	17786	5912.784002430954	2
0	17793	5913.718585609588	3
0	17795	5915.066513686629	2
0	17800	5915.475090104429	1
0	17805	5916.331466411277	0
0	17845	5929.699403222289	1
0	17847	5930.430203818868	2
0	17848	5930.680195093626	1
0	17854	5930.762613345147	2
0	17857	5931.784382457825	3
0	17858	5932.198339815185	2
0	17864	5932.523797988763	3
0	17865	5932.614256330484	2
0	17873	5933.720473373449	1
0	17881	5936.453847716046	2
0	17882	5937.669427646212	1
0	17891	5941.922283156488	2
0	17893	5942.300383787492	3
0	17894	5942.422604176763	2
0	17902	5943.196325094204	1
0	17907	5944.450700008414	0
0	17948	5962.023271813534	1
0	17950	5963.732277504283	2
0	17955	5968.903243277879	1
0	17963	5969.461664854347	2
0	17967	5972.494793128217	1
0	17976	5976.1245939452	0
0	17992	5978.300109617173	1
0	17993	5978.760114763853	0
0	17999	5979.819521211631	1
0	18008	5982.990601701378	2
0	18009	5983.753269634561	1
0	18014	5985.236388726114	0
0	18026	5986.668894812737	1
0	18027	5986.899403965636	0
0	18033	5986.950441627401	1
0	18034	5988.690618939737	0
0	18038	5989.232223626427	1
0	18042	5989.532867274419	2
0	18045	5992.811461277407	1
0	18050	5993.74723874405	0
0	18057	5994.988145330331	1
0	18058	5995.279657222462	0
0	18066	5997.518965045412	1
0	18070	5998.097781231361	2
0	18074	6000.41726517346	1
0	18081	6001.828125686165	0
0	18088	6002.181445675136	1
0	18094	6004.141169659121	2
0	18096	6004.269870763687	3
0	18097	6004.613544617284	2
0	18103	6005.518589235041	1
0	18113	6011.060020755403	2
0	18114	6012.614288423982	1
0	18119	6012.78344731332	0
0	18126	6014.257567692156	1
0	18127	6019.526223970221	0
0	18140	6021.417468567286	1
0	18143	6026.777813612353	0
0	18181	6046.504643091247	1
0	18187	6049.342337036868	2
0	18188	6049.472783833321	1
0	18196	6051.790403556183	2
0	18197	6052.641304414039	1
0	18203	6053.781768571371	0
0	18223	6059.165350631944	1
0	18224	6059.399425434157	0
0	18239	6066.494881294271	1
0	18240	6066.603762951278	0
0	18257	6072.405433218191	1
0	18258	6074.831366499572	0
0	18280	6082.706415494014	1
0	18282	6085.422170451864	2
0	18286	6089.419913439961	3
0	18289	6089.559175421644	2
0	18302	6091.146431403985	3
0	18304	6093.850652502417	4
0	18305	6094.910623495872	3
0	18310	6095.655415396482	2
0	18316	6096.710908734363	3
0	18322	6098.79962758277	4
0	18325	6100.37610781365	3
0	18331	6100.480218438375	4
0	18333	6102.724171607017	5
0	18336	6104.357979030459	6
0	18340	6104.585075579198	7
0	18342	6105.443304987329	8
0	18344	6106.41420760131	9
0	18345	6106.853512456083	8
0	18351	6106.874068970801	9
0	18353	6106.976582038183	10
0	18359	6108.375981061178	9
0	18366	6109.30750629608	8
0	18374	6112.62945963646	7
0	18380	6112.869548220698	8
0	18382	6115.824934138096	7
0	18387	6115.881397409697	6
[...]
4	79983	26186.771903514183	5193.3143881119
4	79988	26187.09199696939	5186.7288927895
4	79995	26189.032593338182	5178.5989052885
4	80002	26192.358783058577	5177.6784809792
4	80008	26192.97236754603	5172.2309161812
4	80015	26194.704218830017	5161.4027267906
4	80024	26196.719350596082	5163.2822594506
4	80047	26204.456154581929	5156.5199275477
4	80084	26213.374074028243	5165.4286765633
4	80214	26257.232227571762	5196.479171414
4	80219	26259.902083074659	5190.0380437629
4	80225	26260.784611463975	5187.333584839
4	80232	26261.915067056108	5184.8363871976
4	80239	26263.687508543126	5177.6122515302
4	80250	26270.13048719415	5174.0161585676
4	80290	26287.968369589389	5189.6393722274
4	80326	26298.925834118586	5197.9019832297
4	80341	26304.678642041323	5190.5653446762
4	80362	26312.605695386819	5197.8637813393
4	80369	26315.186029600585	5188.9635452263
4	80374	26315.65536542917	5176.5256669411
4	80379	26316.92121451717	5174.0990281084
4	80388	26319.535958226547	5167.8172848988
4	80417	26331.161915392971	5179.3679607482
4	80435	26339.15692391555	5178.3864192777
4	80467	26343.927317297927	5182.2047762815
4	80476	26346.229946187639	5181.0361436361
4	80497	26350.089509502408	5184.8114069753
4	80519	26360.966161188958	5194.835853151
4	80530	26362.894950338201	5173.6991539483
4	80555	26367.617900969842	5171.7217881479
4	80560	26368.377695446868	5170.5410541496
4	80566	26369.147013498591	5167.5347086334
4	80573	26371.426625475899	5169.7383654601
4	80580	26372.361401526895	5164.2259883552
4	80585	26372.46922155047	5158.3317663322
4	80592	26374.734046920774	5158.6169431974
4	80613	26380.642962823298	5149.2991554047
4	80656	26391.68462875338	5150.9529170353
4	80663	26395.137316126734	5147.299431315
4	80671	26398.546747064214	5147.3543596527
4	80676	26399.267877489142	5147.3176485065
4	80683	26401.831356670878	5149.6644689278
4	80690	26405.4619797756	5151.3998090873
4	80783	26442.433447118067	5187.2337067953
4	80794	26446.202894301091	5184.9067222944
4	80803	26447.54621578506	5179.0064877014
4	80816	26450.547894410224	5181.4417986108
4	80823	26454.458118251632	5179.9416120428
4	80839	26459.556407116065	5180.2852720909
4	80852	26462.467791643915	5181.4583091998
4	80866	26464.168842778848	5180.5655377539
4	80875	26466.760247985772	5159.233613156
4	80906	26478.74487502006	5165.6583026005
4	80996	26501.547661403122	5188.0684571355
4	81029	26509.346683740368	5187.5908911111
4	81047	26515.305666173428	5190.5885983728
4	81090	26528.36467297122	5202.0159798941
4	81137	26545.706097700978	5212.3549262114
4	81142	26545.883350837458	5210.5490673797
4	81149	26549.47190514974	5212.8074966971
4	81160	26551.806605313767	5214.5007077864
4	81165	26554.244546173911	5211.2391346955
4	81172	26555.296584270987	5204.8806926588
4	81189	26558.578091167688	5202.0180089227
4	81219	26565.998538042093	5202.9719000936
4	81226	26567.599747715401	5197.6251777623
4	81241	26571.98984343652	5196.7065889711
4	81248	26574.573763038784	5195.6960304468
4	81261	26578.857599892413	5194.7322116484
4	81272	26580.709507230751	5191.4046790377
4	81277	26581.736797383177	5190.7099961341
4	81282	26583.496957961323	5173.1177394365
4	81289	26588.465811045812	5173.3018162406
4	81381	26614.93650328458	5198.8094271634
4	81388	26616.452667626253	5197.3010940527
4	81401	26618.824114490374	5197.6239898107
4	81412	26624.596729667106	5198.5047315049
4	81459	26638.37127560451	5211.8698395839
4	81476	26641.808623372608	5213.9908117297
4	81494	26646.455690836847	5217.5222042299
4	81508	26653.869329147002	5217.1243505185
4	81536	26661.334464461153	5216.8769334927
4	81579	26668.751842139892	5219.1231035236
4	81602	26673.326612106757	5219.1025081484
4	81619	26679.931505794934	5224.4749140851
4	81640	26683.751226086108	5227.8438991039
4	81647	26685.853683837405	5222.7486105221
4	81702	26699.843983141971	5233.5544672352
4	81733	26718.55457639723	5244.9456058974
4	81744	26720.92603505759	5244.4824254593
4	81756	26731.346366284542	5253.5790742609
4	81761	26734.747257078082	5255.1353754904
4	81766	26736.761623762048	5247.0585677615
4	81771	26738.82655946766	5246.3784052161
4	81776	26739.304957671319	5217.0539713014
4	81783	26742.102395309133	5211.0776163457
4	81796	26743.382559621693	5208.9389843097
4	81826	26749.558735818118	5209.9495486798
4	81838	26755.110449379234	5202.1660466824
4	81853	26756.608212668791	5198.0946231233
4	81861	26759.000160390948	5189.2578359593
4	81870	26762.037284207918	5192.0492127809
4	81882	26763.979889359336	5182.5539610302
4	81896	26767.85299120889	5186.1300527872
4	81901	26768.588827320927	5173.346983043
4	81914	26775.591145264079	5179.9391617954
4	81927	26779.865298783918	5181.224828082
4	81938	26782.625780572096	5179.2278814999
4	81945	26784.027195956376	5180.2049337483
4	81956	26789.504567765048	5182.9517679233
4	81961	26790.042671408046	5174.66408313
4	81981	26797.743192714265	5180.4837200247
4	82006	26803.872889022413	5177.8047161341
4	82021	26808.159185395078	5141.564170086
4	82031	26811.330528600175	5138.1151141671
4	82036	26811.605241331257	5136.3704945118
4	82041	26812.035107181311	5128.4030673588
4	82046	26814.227808106234	5128.4201305962
4	82053	26815.071190669818	5121.4026172
4	82058	26815.189278743746	5116.6327232708
4	82065	26816.309591332224	5102.0414826951
4	82099	26827.959369815724	5105.1579685215
4	82131	26837.766839710029	5108.7528818136
4	82140	26839.066104228601	5100.8422065973
4	82214	26862.139836587893	5112.8706430706
4	82231	26869.408640303785	5114.4235737404
4	82415	26919.128458944265	5152.6217572718
4	82436	26924.707384369668	5154.4643742682
4	82441	26925.08774995682	5152.3227393366
4	82449	26927.424065490555	5145.032828153
4	82462	26928.097272509032	5141.3300296189
4	82476	26935.625760057439	5147.7372023895
4	82485	26939.484215186925	5143.4431134221
4	82519	26945.903371838107	5142.2432812884
4	82526	26949.868187135548	5144.5579642004
4	82533	26953.231631214921	5144.3975440571
4	82538	26954.243982429613	5142.9674779589
4	82551	26959.570077694528	5146.1749076246
4	82584	26971.722804920686	5154.2561520106
4	82610	26980.536739649928	5159.4473011583
4	82624	26987.009522550975	5161.9613051407
4	82629	26987.45017627386	5146.813117768
4	82636	26990.375535681091	5147.4452389644
4	82645	26991.65219930434	5143.5480193942
4	82668	27001.01732524161	5147.7719565753
4	82682	27005.312272209714	5140.1764359945
4	82687	27005.489555748905	5137.0947721748
4	82696	27009.774527007745	5138.9426342564
4	82727	27018.089966408774	5128.9467719
4	82734	27021.727835607495	5131.5344443186
4	82776	27043.420200722673	5145.8989576915
4	82825	27060.012044519509	5159.6826610214
4	82853	27067.803740819796	5166.7051111645
4	82859	27067.988663125192	5165.7661236827
4	82868	27068.749043166013	5165.9803292682
4	82999	27121.936067457223	5210.0123269257
4	83008	27124.649569500806	5208.0554658626
4	83096	27153.127331804404	5236.0789989736
4	83101	27153.388737856629	5230.6439647095
4	83107	27154.320958907759	5218.5162293127
4	83124	27160.065503041505	5220.5275442882
4	83205	27183.9192357464	5242.3300754677
4	83210	27184.471308884024	5240.863761374
4	83216	27195.282295346843	5238.0637170957
4	83221	27196.006916628335	5230.7181644482
4	83236	27203.19134229117	5232.5677266754
4	83257	27211.195006975004	5239.065423402
4	83281	27215.775222155173	5243.2004222023
4	83286	27217.623831591427	5241.8817221124
4	83309	27227.121196416888	5245.8844495233
4	83411	27252.906130890596	5260.7496638742
4	83421	27255.612596263748	5259.938313866
4	83427	27255.716870284576	5259.5978747009
4	83440	27258.429880980586	5260.775063128
4	83472	27271.304050043937	5273.3373630279
4	83548	27287.832160379672	5285.2663730906
4	83569	27292.190887064698	5284.7075410361
4	83578	27295.348594721448	5260.823753996
4	83586	27297.112963014278	5249.4638600072
4	83591	27298.937637462797	5246.6533316323
4	83596	27302.742552293598	5246.9918008732
4	83601	27303.253683074912	5246.3571930808
4	83606	27306.633329982437	5247.192240367
4	83611	27308.16514745091	5242.2409109929
4	83616	27310.642833376747	5230.9220422677
4	83621	27312.582883937036	5230.9246664826
4	83627	27315.887192262012	5231.2428928942
4	83632	27316.622341240424	5231.518773147
4	83637	27322.605191361628	5230.0576523053
4	83644	27324.582545469035	5222.716287466
4	83664	27327.576262300821	5224.5709554137
4	83747	27357.400445995337	5245.0575749519
4	83780	27365.230622767201	5243.4584198065
4	83791	27366.096024645512	5242.4073786254
4	83799	27370.451871209491	5234.7918607036
4	83806	27373.232437681931	5214.5813487897
4	83817	27375.449449991209	5203.5340166933
4	83823	27377.963170243205	5200.7377293435
4	83831	27380.957870151095	5201.3853558775
4	83844	27383.372312769563	5185.2192508114
4	83851	27388.215432883061	5189.4894772287
4	83862	27392.056658342937	5188.2936352639
4	83905	27404.715984375585	5188.5778162065
4	83910	27405.232842405451	5186.2202225655
4	83929	27413.099455648242	5182.6610426233
4	84000	27431.194512778313	5195.7719998727
4	84005	27432.059529752052	5191.8253884531
4	84011	27434.05037621832	5187.5900282611
4	84021	27436.288424221222	5189.7466095614
4	84052	27449.041649626679	5192.8712316004
4	84105	27467.735706160809	5207.4592005393
4	84122	27476.639054347148	5206.1835681125
4	84180	27496.403128774851	5225.8536011293
4	84196	27498.856048108679	5198.6368315541
4	84203	27502.044427928622	5192.0093448361
4	84209	27502.451279858183	5189.9500549012
4	84214	27505.832569485466	5188.9094467755
4	84223	27509.027803253997	5191.9826141922
4	84299	27529.376971171928	5209.7893104629
4	84308	27533.16135545338	5210.2838307877
4	84329	27541.061906829897	5216.7405840457
4	84345	27545.629975468885	5220.9538030352
4	84382	27558.433929494861	5228.2026106279
4	84396	27566.016281165958	5229.8192476465
4	84454	27579.616977143823	5229.8676081882
4	84464	27585.347120110921	5215.3769450865
4	84478	27588.81609391633	5214.8830149204
4	84493	27592.359007213308	5216.9292396077
4	84507	27597.272183045966	5196.2594197201
4	84570	27617.048462141619	5214.677730114
4	84624	27637.665743360012	5228.0002392811
4	84629	27638.185735891085	5200.8642639611
4	84640	27640.811181270344	5197.9691290035
4	84664	27649.937489417704	5202.99756543
4	84681	27656.758474450841	5208.0382412468
4	84707	27669.402564279601	5218.8224232076
4	84712	27670.214277667579	5213.243803784
4	84723	27674.465561859274	5203.6766704759
4	84735	27678.688057318228	5206.1136938801
4	84742	27683.057956452937	5208.6562046189
4	84897	27741.699659973756	5261.1564335
4	84917	27751.074640314651	5264.9494531708
4	84928	27752.116847016091	5244.1219610638
4	84935	27753.605018229841	5234.046308596
4	84945	27755.957136708466	5234.0004365641
4	84951	27757.797521468182	5235.4798201842
4	84956	27759.435847803422	5232.1131178685
4	84964	27761.562812521227	5231.3583549818
4	84974	27767.872779788895	5227.6646402525
4	85007	27775.327760433411	5233.0478492381
4	85020	27777.930885032328	5228.1522009466
4	85050	27783.731820781123	5231.1192893305
4	85060	27788.361178718339	5232.5887125374
4	85068	27789.834809700116	5223.751190505
4	85073	27790.010027001605	5223.5443325291
4	85087	27797.097259252684	5220.6924582847
4	85119	27807.094041702741	5229.0471873344
4	85128	27811.396410076818	5224.2076500738
4	85139	27819.441793414775	5229.862087757
4	85170	27829.95576979456	5234.3560376694
4	85388	27903.501878769176	5306.6575084664
4	85396	27905.653171258296	5307.7239529324
4	85401	27905.954695973684	5304.39567543
4	85406	27906.119075501054	5299.0143149621
4	85413	27906.875100274674	5294.2213266933
4	85424	27913.538723418983	5299.3242124977
4	85460	27927.473436379724	5307.7679602443
4	85540	27948.913116975502	5326.2166743602
4	85551	27954.537091553161	5331.5172669987
4	85717	28021.571060497326	5388.876661829
4	85729	28030.082442007912	5390.0591296227
4	86082	28171.572517982233	5505.8967416737
4	86087	28173.202243797738	5499.1723745051
4	86104	28178.941350437687	5501.2867369471
4	86135	28185.358658739553	5506.6456178475
4	86151	28191.802969472211	5509.7067934797
4	86176	28201.184182144546	5516.2159150426
4	86208	28207.52637039806	5518.4132511237
4	86249	28215.541655507175	5526.0264847027
4	86256	28216.922159877838	5524.2938053466
4	86268	28221.204782870519	5519.4824717394
4	86273	28221.354459819853	5514.6043251521
4	86285	28226.437656104713	5501.7083089825
4	86327	28239.072794307419	5511.6825659739
4	86382	28257.171125292428	5527.4162564094
4	86391	28262.642844229838	5529.1001792159
4	86398	28265.910562823522	5527.4746028916
4	86409	28275.735208252159	5527.8997327024
4	86448	28283.624039042991	5533.5374104548
4	86453	28287.18615036945	5529.6545496007
4	86460	28290.357924743685	5525.3798784065
4	86479	28296.514334939361	5530.4990471548
4	86502	28308.192083090592	5536.0373519457
4	86519	28322.856944125506	5550.2227627315
4	86549	28329.637783508897	5555.6988181527
4	86561	28334.767973415457	5556.3471831887
4	86566	28336.177542355728	5555.6249384976
4	86577	28341.527543179624	5554.3944922098
4	86638	28361.746078107968	5573.7079585573
4	86649	28365.494846809729	5573.6703541883
4	86654	28366.598684167672	5560.0598153861
4	86667	28369.010346755484	5562.3937499512
4	86731	28385.355675737571	5577.9967304335
4	86747	28389.47916539388	5570.8024829265
4	86752	28390.068021207775	5560.2789922258
4	86757	28392.322639614416	5559.2237127197
4	86764	28394.678194171535	5560.7196595349
4	86779	28397.201221373355	5553.2790606623
4	86790	28401.919168130964	5557.2204293195
4	86801	28404.091032076247	5557.9287788398
4	86829	28414.49279164247	5551.4569692455
4	86834	28414.823472195704	5548.3497255016
4	86841	28415.563216916507	5547.7954594372
4	86886	28430.334235047976	5560.2748593172
4	86895	28431.150981614882	5552.7702893447
4	86907	28436.626423384738	5553.6547905389
4	87005	28472.252205514736	5582.1855840927
4	87010	28472.419134662661	5576.1244866492
4	87033	28481.161593458876	5583.9907574341
4	87053	28482.671637431105	5584.9362926708
4	87058	28483.090878396163	5574.6716301595
4	87065	28483.149092065348	5555.6388985904
4	87134	28507.356697333236	5571.7669831157
4	87139	28508.095694860915	5552.907297227
4	87144	28510.796547363873	5555.3910985088
4	87149	28512.46826418852	5556.6932718088
4	87162	28525.469235383352	5550.220551376
4	87266	28560.697357729264	5582.002360044
4	87271	28560.767176645683	5581.6499546719
4	87276	28561.511937538683	5582.1009333141
4	87281	28563.756305268529	5582.4657327903
4	87286	28564.880290797486	5579.2737400576
4	87297	28567.179525347901	5577.610690211
4	87348	28580.477802520616	5572.2695013649
4	87353	28580.78453663982	5569.2894728925
4	87360	28585.798502631979	5567.9155193501
4	87377	28600.333305818998	5580.9459512953
4	87392	28608.969423620664	5582.8029014355
4	87402	28611.459153859183	5577.2079984266
4	87409	28614.513073198336	5578.9863988359
4	87423	28617.743878879232	5573.6785432262
4	87440	28621.561867355136	5569.5459018957
4	87500	28632.482368544397	5566.4854845719
4	87505	28632.776246460698	5558.5834175185
4	87510	28634.135479687962	5557.5036608322
4	87521	28639.861131001081	5559.6278134455
4	87575	28657.419736144935	5564.1093664919
4	87598	28669.826146289324	5563.7247914594
4	87605	28671.688564070361	5565.3565552767
4	87639	28678.66112904733	5569.5744575629
4	87672	28691.573262635689	5582.3811424793
4	87792	28717.271897444684	5597.3180506959
4	87802	28721.092365972577	5600.7262625753
4	87812	28723.092469389032	5601.5910952151
4	87830	28725.188781585604	5593.3301769753
4	87841	28730.300084525776	5595.9524508013
4	87907	28758.788192047202	5618.6002840596
4	87913	28760.064480954614	5607.139901236
4	87926	28762.773206167623	5606.6253238434
4	87954	28773.952659002895	5600.2303303164
4	87962	28774.863458552562	5598.4714230922
4	87971	28775.828131561537	5598.7173905166
4	88007	28792.886775125512	5613.7328141366
4	88026	28796.704114058155	5615.325654054
4	88062	28802.931817000439	5621.0991962188
4	88070	28804.678811849748	5610.524634071
4	88080	28810.55158977723	5611.0792243345
4	88086	28814.560156290409	5614.822084756
4	88103	28822.985997170671	5613.543119513
4	88165	28850.483895987536	5637.8834955594
4	88260	28874.753633681837	5652.940560445
4	88293	28886.751027682121	5651.9587084586
4	88438	28925.720988826278	5682.5267736339
4	88468	28936.148420603712	5679.7329961545
4	88632	28996.827082223148	5731.6333012159
4	88644	29000.546814498723	5734.4211208076
4	88654	29002.163599087429	5724.869041042
4	88674	29005.835963134709	5719.5001611482
4	88683	29010.935419996207	5719.9302045725
4	88696	29015.370261576333	5723.5081085759
4	88710	29022.312692338806	5725.8510687918
4	88724	29026.382931788481	5723.9860683744
4	88729	29027.216009896369	5724.7608190737
4	88741	29031.96674804732	5727.2081033705
4	88752	29035.138201533868	5698.1647009631
4	88765	29042.137631757674	5700.8282379252
4	88999	29130.684193848201	5788.7691142563
4	89004	29130.923702886886	5788.7939339347
4	89013	29132.689033498463	5789.5282145552
4	89033	29137.857923739552	5793.2557830446
4	89084	29155.098860305593	5800.9359304049
4	89097	29157.863885244898	5791.7885853453
4	89102	29158.329793255642	5789.1211796649
4	89111	29162.522447765925	5786.1193942939
4	89766	29386.310363531121	6009.374791524
4	89796	29392.681090892094	6013.2974758877
4	89805	29393.159711438016	6013.7226788593
4	89817	29399.43654159352	6005.8522849995
4	89822	29400.219896434202	6004.7801120706
4	89827	29404.142891317035	5990.5330718869
4	89835	29410.325643748115	5984.8759989535
4	89876	29426.22859849524	5992.6930876723
4	89882	29426.923370178778	5993.1751142044
4	89887	29429.489646512671	5980.928844408
4	89899	29433.442453770929	5984.8311653127
4	89917	29439.139327774509	5979.7000161102
4	89936	29444.957656294301	5984.1855377808
4	90153	29522.315479272422	6057.6579297969
4	90632	29687.540684984549	6220.2498998439
4	90637	29687.640543063796	6219.87202175
4	90643	29689.178907971133	6216.8657605876
4	90655	29696.108709014608	6217.9296728317
4	90667	29699.491168380712	6208.3057151687
4	90672	29700.903171071472	6207.693442281
4	90679	29703.294118051308	6209.1504536985
4	90691	29708.902884061502	6214.0812142881
4	90696	29711.181300610906	6201.4099272568
4	90703	29714.627639846156	6190.3245745288
4	90722	29724.81177413709	6192.0986277262
4	90800	29748.113351080682	6182.7002436431
4	90826	29759.872382171302	6191.7602601791
4	90833	29761.750447715664	6171.9583361365
4	90848	29766.472899961721	6161.3056931731
4	90872	29773.364743267793	6163.2958685933
4	90888	29774.974249342461	6164.4852017996
4	90898	29778.588951109315	6161.3809221671
4	90927	29785.283785071735	6167.226533066
4	90952	29793.932600896632	6160.8061893075
4	90988	29802.065311761956	6167.0011780707
4	91005	29803.64067600025	6164.4616424421
4	91020	29811.687348663566	6169.9669960144
4	91055	29823.2981682562	6180.2432592858
4	91061	29825.855632095613	6182.6752329022
4	91066	29826.72785198033	6181.6317023579
4	91075	29829.543139633376	6180.7409686655
4	91092	29836.480738616257	6184.3644186572
4	91107	29842.586799059482	6188.7720195089
4	91114	29846.798931260458	6191.3930908991
4	91187	29879.450301864221	6223.9959391309
4	91223	29887.608272852845	6230.3289164876
4	91231	29892.577868974264	6235.168210835
4	91244	29899.230075793566	6233.1734986102
4	91257	29900.347316108858	6229.0263457221
4	91262	29902.770337285907	6220.2322828911
4	91271	29905.019022085466	6213.8510626254
4	91292	29912.763531396863	6213.6595550844
4	91303	29915.577768079813	6210.1714300435
4	91373	29933.974079496126	6228.0744141996
4	91384	29941.429824353138	6235.1429538429
4	91389	29941.498069964618	6233.2315074968
4	91399	29947.62888447433	6238.9220705587
4	91412	29948.403210212612	6226.7117230804
4	91432	29953.708152620721	6221.7460568089
4	91437	29954.35588602725	6221.9885928427
4	91446	29957.213416337619	6222.0525053192
4	91460	29960.232121621535	6217.9481339841
4	91468	29960.801365824881	6215.9025912018
4	91473	29961.056242283542	6214.1247328104
4	91482	29964.969783182128	6214.820537525
4	91503	29969.882672111651	6215.8560581278
4	91523	29979.058966393813	6217.1715388975
4	91540	29980.362766473555	6217.8239916938
4	91547	29984.412155573214	6221.4320501601
4	91556	29988.977836068604	6225.6935051331
4	91574	29992.038092898582	6221.1316789559
4	91580	29993.229903041889	6216.2930416238

