version 2
run Third-n4-5-20191016-14:53:48-13496
attr configname Third-n4
attr datetime 20191016-14:53:48
attr experiment Third-n4
attr inifile omnetpp.ini
attr iterationvars ""
attr iterationvarsf ""
attr measurement ""
attr network org.omnetpp.queueing.Pizza
attr processid 13496
attr repetition 5
attr replication ""
attr resultdir results
attr runnumber 5
attr seedset 5
param **.PS.maxInventoriedPS 4
param **.U1.interArrivalTime exponential(4s)
param **.U2.interArrivalTime exponential(6s)
param **.PS.serviceTimeForInventoryU1 exponential(1.4s)
param **.PS.serviceTimeForInventoryU2 exponential(1.4s)
param **.PS.serviceTimeDirectU1 exponential(1.8s)
param **.PS.serviceTimeDirectU2 exponential(1.8s)
param **.PS.probabilityProducing 0.8
param **.CS.serviceTimeU1 exponential(2.3s)
param **.CS.serviceTimeU2 exponential(2.3s)

vector 0 Pizza.EntryQueueU1 queueLength:vector ETV
attr interpolationmode sample-hold
attr title "queue length, vector"
vector 1 Pizza.CS queueLength:vector ETV
attr interpolationmode sample-hold
attr title "queue length, vector"
vector 2 Pizza.EntryQueueU2 queueLength:vector ETV
attr interpolationmode sample-hold
attr title "queue length, vector"
vector 3 Pizza.sink lifeTime:vector ETV
attr interpolationmode none
attr title "lifetime of arrived jobs, vector"
attr unit s
vector 4 Pizza.sink lifeTimeU2:vector ETV
attr interpolationmode none
attr title "lifetime of arrived jobs, vector"
attr unit s
0	0	0	0
0	5	1.004079910768	1
0	7	1.930391765611	2
0	11	3.738964224312	3
0	13	4.115420356294	4
0	14	5.085741223811	3
0	23	7.676024802913	2
0	29	7.89978038264	3
0	30	8.314930500473	2
0	35	8.585287280659	1
0	39	8.589153753283	2
0	44	9.502555838954	3
0	45	9.969379227906	2
0	53	12.076440836646	1
0	59	12.46917779268	2
0	64	13.091885211073	3
0	65	16.199688545652	2
0	70	16.417990337226	1
0	75	16.474586070241	0
0	97	26.381119045795	1
0	98	31.969840475687	0
0	130	44.130404561175	1
0	132	45.00041729118	2
0	133	45.168539221592	1
0	141	47.654235533125	2
0	143	50.226459886672	3
0	145	51.383834305397	4
0	146	51.443973284249	3
0	152	51.640757877433	4
0	155	52.665431459354	5
0	156	53.741757951787	4
0	162	56.062076841247	3
0	167	56.56135101149	2
0	172	59.627248050059	1
0	178	64.128006026309	2
0	180	64.523765083131	3
0	183	65.656565090173	2
0	191	68.46820351201	1
0	198	68.949082005362	0
0	202	69.134764679679	1
0	209	73.262492188672	2
0	210	73.41376712702	1
0	217	75.982745216744	2
0	218	78.504935515305	1
0	223	78.709511329142	0
0	244	86.770873516733	1
0	246	86.914035151845	2
0	248	88.771792479194	3
0	250	89.434420185046	4
0	252	89.484206379127	5
0	254	91.036850246099	6
0	255	92.08623126996	5
0	261	93.111559386697	4
0	267	96.725728936657	3
0	275	98.892935949582	4
0	277	101.555834185832	5
0	278	104.848874528587	4
0	284	104.956148480332	5
0	285	105.499324873346	4
0	291	107.770596729946	3
0	296	109.155759305594	2
0	301	110.779515192457	1
0	309	111.805915144163	0
0	339	121.791614524477	1
0	341	123.914355283532	0
0	357	140.104473204711	1
0	360	140.614160931163	0
0	368	141.776693553925	1
0	372	142.890452110178	0
0	384	144.166176953468	1
0	386	144.569990592969	2
0	387	145.822232579787	1
0	395	146.791800130355	0
0	407	151.16639625272	1
0	409	151.413138955524	2
0	411	152.160618564982	3
0	413	155.042768529473	2
0	424	158.12913816781	1
0	429	159.601664161735	0
0	437	165.569863811246	1
0	438	165.925631159733	0
0	449	167.511238575637	1
0	451	169.971138663202	2
0	454	170.371807841483	3
0	456	170.905190030199	4
0	457	171.03600194113	3
0	462	171.571706548778	2
0	469	174.91373436797	3
0	470	175.150380180576	2
0	477	176.433873414125	1
0	485	177.659974141633	2
0	487	179.877951178737	3
0	493	187.71518479662	4
0	494	188.017982651499	3
0	499	189.063688815272	2
0	505	189.249880486356	3
0	512	192.342006367702	2
0	518	192.374214588538	3
0	520	192.679504537176	2
0	526	192.839983074152	3
0	527	193.578284537684	2
0	534	194.854334350034	1
0	540	196.518580063633	2
0	541	196.684400715867	1
0	551	199.042478032492	2
0	553	199.66867893662	1
0	559	199.672887618863	2
0	562	200.676475463944	1
0	567	201.324784842047	0
0	574	202.154807303359	1
0	576	202.206532593515	2
0	577	202.780282658371	1
0	582	202.923492848826	0
0	586	203.626527609192	1
0	593	204.930312176396	2
0	598	207.573923330734	3
0	599	208.553406283982	2
0	604	210.137400520199	1
0	611	212.234078157656	2
0	613	212.970770393412	3
0	617	215.344925955961	2
0	622	215.409566166565	1
0	627	215.870161697367	0
0	636	219.414992408674	1
0	639	220.248743855929	0
0	682	229.051107410805	1
0	686	232.625767361965	0
0	723	242.076118606235	1
0	728	245.220358579061	0
0	744	250.655618525606	1
0	746	250.694641500962	2
0	748	251.059589633351	3
0	752	254.248854008433	4
0	758	259.166375072995	5
0	761	259.680566074727	4
0	767	266.096598098169	3
0	772	266.892375161154	2
0	777	267.501621685917	1
0	788	272.900943492794	2
0	792	275.461484426072	3
0	798	276.92001640982	4
0	800	277.151851864355	5
0	802	277.933523070625	6
0	804	278.058454494007	7
0	805	278.106324614549	6
0	810	278.271858669282	5
0	817	278.65215456639	6
0	819	279.33967513936	5
0	826	280.346478250311	6
0	827	280.533798240239	5
0	834	281.130223089894	6
0	836	281.891295133153	5
0	842	282.739906028797	4
0	849	284.603135514506	5
0	851	284.775321169383	6
0	855	287.321639057996	5
0	863	289.866671743427	4
0	870	291.873460581983	5
0	873	295.844362578151	4
0	879	297.149091749525	3
0	885	298.135747611447	2
0	891	299.1472405468	1
0	896	299.207919630008	0
0	924	304.888165415039	1
0	925	305.524064576735	0
0	937	307.899751952979	1
0	940	315.021738379976	0
0	947	315.562843820088	1
0	949	316.686057414109	0
0	970	329.174840268245	1
0	973	332.541135243965	0
0	980	333.410454087502	1
0	986	335.887525324299	2
0	987	336.383080140143	1
0	993	337.448913638055	0
0	1013	347.555152762833	1
0	1016	349.553771423645	0
0	1033	356.583063407433	1
0	1034	357.259455918828	0
0	1043	358.42006144776	1
0	1047	359.491814040903	0
0	1054	361.087325991398	1
0	1057	363.602878541688	0
0	1081	369.37905602716	1
0	1082	369.848493023787	0
0	1097	373.393455596291	1
0	1099	375.583107127651	2
0	1100	376.554732339758	1
0	1105	378.589072177881	0
0	1111	380.077287807721	1
0	1112	380.327632651318	0
0	1118	380.608044946137	1
0	1119	381.140894560855	0
0	1134	384.15758096255	1
0	1136	385.320024227479	0
0	1149	386.074094653533	1
0	1151	386.190814990984	2
0	1152	386.846780845828	1
0	1157	388.018649605184	0
0	1181	398.626560231868	1
0	1183	398.86719860721	2
0	1189	400.618485459805	3
0	1190	400.653078273534	2
0	1198	402.291521551751	3
0	1204	404.882279312466	2
0	1212	406.350284835486	1
0	1219	406.942204393204	0
0	1225	408.04692455428	1
0	1228	411.163335916456	0
0	1267	418.522765875762	1
0	1268	419.772846066662	0
0	1283	423.085944560148	1
0	1286	426.408281194276	0
0	1292	426.817687417781	1
0	1293	426.954892253912	0
0	1300	428.053446116656	1
0	1308	431.155245267612	0
0	1340	442.638890670016	1
0	1343	443.078134219407	0
0	1350	444.726553730083	1
0	1352	445.627833551742	2
0	1357	451.445415319568	1
0	1363	452.713354092819	0
0	1369	452.955680856499	1
0	1371	453.338033170052	2
0	1373	453.418394244347	3
0	1376	455.189925687294	4
0	1382	457.291046120772	3
0	1390	460.787528079299	2
0	1396	461.914048194116	3
0	1397	461.943688896435	2
0	1405	463.660915533657	1
0	1410	464.831055032201	0
0	1427	467.431890166284	1
0	1431	469.317508010967	2
0	1432	469.787632098587	1
0	1439	472.187258986944	2
0	1442	472.776174811898	1
0	1448	473.45147367873	0
0	1464	483.704244051407	1
0	1467	490.681090479128	0
0	1478	492.49712103593	1
0	1480	495.50968959655	2
0	1484	497.649548040931	1
0	1490	497.653662384104	2
0	1494	500.880248673615	1
0	1501	500.937985003323	2
0	1502	503.517809754236	1
0	1508	504.606477876995	0
0	1559	516.590328625535	1
0	1563	517.604340807755	2
0	1566	520.019000585469	1
0	1572	524.423664082007	0
0	1580	524.678728152435	1
0	1588	530.004748259048	2
0	1589	530.725172044849	1
0	1596	532.657167378902	0
0	1607	535.09379235615	1
0	1610	539.133352621356	0
0	1643	547.121060987073	1
0	1650	549.003080677292	0
0	1657	551.203542640532	1
0	1660	556.291104582858	0
0	1672	557.179990225755	1
0	1675	558.803175515667	0
0	1682	559.423984300382	1
0	1684	560.154935057504	2
0	1686	565.160603382941	1
0	1692	566.193550263879	2
0	1694	567.404585148612	3
0	1696	567.544277701925	4
0	1699	567.87561174046	3
0	1705	569.214568452743	2
0	1710	569.685657670887	1
0	1716	569.941913154267	2
0	1717	572.767830727045	1
0	1722	573.376198244202	0
0	1735	576.073098389295	1
0	1736	576.823932086642	0
0	1758	581.379687463448	1
0	1766	584.336682728488	0
0	1780	587.225579831891	1
0	1782	587.517917882401	2
0	1786	588.819552371428	3
0	1787	589.765918173538	2
0	1795	593.330545281398	3
0	1797	593.987453508682	2
0	1804	595.388132604425	1
0	1809	595.675775986896	0
0	1822	599.261634542061	1
0	1823	602.614354321729	0
0	1830	603.076514023861	1
0	1835	606.128035441815	2
0	1836	606.901043085246	1
0	1841	607.065300060297	0
0	1848	607.772904263595	1
0	1850	609.034038844452	2
0	1852	610.476527292061	1
0	1857	610.988871139334	0
0	1864	611.612765903286	1
0	1866	611.774170931216	0
0	1872	612.907651814381	1
0	1875	613.236591908249	2
0	1876	614.360845947143	1
0	1881	614.538256134303	0
0	1919	633.449258692224	1
0	1925	638.474440734433	2
0	1927	639.096561030773	1
0	1934	639.727287846479	0
0	1951	645.547703167811	1
0	1953	646.188434673988	2
0	1954	646.507990271591	1
0	1960	647.548425738992	0
0	1966	647.629156549513	1
0	1969	648.527466258708	0
0	1991	655.472738258757	1
0	1994	657.365353771787	0
0	2000	658.57486527378	1
0	2001	658.850470665999	0
0	2015	664.021076110188	1
0	2019	665.203048736793	0
0	2030	667.716624538602	1
0	2031	668.612096026707	0
0	2038	669.319936108914	1
0	2042	672.863991278938	0
0	2048	673.160938652347	1
0	2051	676.077007912019	2
0	2053	678.051791499905	3
0	2054	678.257098188671	2
0	2060	679.322054456026	1
0	2066	679.364676523251	0
0	2102	696.514884841168	1
0	2103	696.991644452162	0
0	2115	700.340341646079	1
0	2116	701.024156681897	0
0	2122	701.438936536377	1
0	2123	701.921013782303	0
0	2129	702.701538815022	1
0	2134	704.048259807238	0
0	2163	717.647133546768	1
0	2164	717.979597298518	0
0	2190	728.378221359663	1
0	2192	729.755205812936	2
0	2196	731.315240089617	3
0	2197	732.127451116139	2
0	2204	733.651040307361	3
0	2206	734.157253693188	4
0	2208	736.378143729866	5
0	2210	737.327612037075	6
0	2211	737.667033036718	5
0	2220	740.038183428128	6
0	2221	740.27181926779	5
0	2229	742.830655541318	4
0	2234	743.948605091993	3
0	2240	744.675993985716	2
0	2247	746.621022344857	1
0	2252	747.057793777401	0
0	2262	747.732232358633	1
0	2266	749.063932712214	2
0	2268	749.776378644846	3
0	2269	750.504509408633	2
0	2278	752.209690134955	3
0	2282	756.327382689378	4
0	2284	756.426034478384	5
0	2285	756.570428696468	4
0	2295	760.248632412377	5
0	2296	761.199194383371	4
0	2302	762.266003221939	5
0	2303	762.700227904549	4
0	2310	763.376503331023	3
0	2316	764.750960185943	2
0	2324	765.480538457239	1
0	2329	766.433125834574	0
0	2336	766.887271050565	1
0	2341	768.494108688559	2
0	2345	769.006023018609	3
0	2348	770.195676215185	4
0	2349	770.70801676306	3
0	2355	771.903989591693	2
0	2361	771.90530429473	3
0	2363	772.69536518801	4
0	2365	773.523475429945	3
0	2378	778.71367077321	4
0	2379	779.869820796777	3
0	2384	780.432409509967	2
0	2390	783.185627923645	3
0	2392	783.490912143747	2
0	2399	783.636993519144	1
0	2404	783.860233293109	0
0	2426	786.249307804062	1
0	2428	786.879818474506	2
0	2430	787.998034899365	3
0	2432	788.320500859252	4
0	2434	792.689766593694	5
0	2439	795.345927035523	4
0	2445	796.053051192391	5
0	2448	799.11364532466	6
0	2449	801.937957853049	5
0	2454	802.03327859096	4
0	2464	805.681077818181	5
0	2466	806.638330972316	6
0	2467	807.187071351678	5
0	2472	807.626322569102	4
0	2479	809.342571940627	3
0	2484	809.942811417771	2
0	2489	811.182661613963	1
0	2497	812.995938060854	0
0	2515	818.225686792652	1
0	2516	818.57914622071	0
0	2550	826.696429361338	1
0	2554	829.711732330258	0
0	2566	832.066061284748	1
0	2567	832.786930016422	0
0	2578	835.035112660355	1
0	2580	836.270179007881	0
0	2592	839.775860221707	1
0	2596	840.182554842356	2
0	2597	842.860824745965	1
0	2603	843.980216624454	2
0	2604	845.316938670165	1
0	2611	847.021444608922	2
0	2612	847.927479374755	1
0	2617	848.477043307808	0
0	2628	851.209801546751	1
0	2636	851.82011730249	0
0	2644	854.979688781419	1
0	2648	858.456771236493	0
0	2657	860.083048397554	1
0	2659	860.60794603688	2
0	2664	862.635522908764	1
0	2669	863.566251873567	0
0	2686	866.904702008959	1
0	2688	870.212000572064	2
0	2690	874.466293398444	3
0	2696	875.074331982832	4
0	2704	878.104635146082	5
0	2706	879.12978221115	4
0	2711	879.54572002699	3
0	2716	879.722086431037	2
0	2721	881.406912755722	1
0	2729	883.17653941551	0
0	2736	884.84510832463	1
0	2740	886.861402480682	0
0	2747	889.776598116837	1
0	2748	889.781044547145	0
0	2765	893.898060446184	1
0	2768	896.369958367073	0
0	2779	900.111940572501	1
0	2781	901.873642950468	2
0	2787	905.053383989434	3
0	2789	906.120107569502	2
0	2794	906.281281545481	1
0	2800	907.017828845188	2
0	2805	910.438557441516	1
0	2814	912.702712894795	0
0	2821	914.16577229161	1
0	2823	914.19784793996	2
0	2829	918.896429818607	3
0	2830	918.913954375353	2
0	2835	921.594664459901	1
0	2844	926.083260872389	2
0	2847	927.983104889585	3
0	2850	928.399605962739	4
0	2852	929.157282365656	5
0	2854	931.479389076942	6
0	2855	932.046926457611	5
0	2866	935.180677587318	6
0	2868	935.421418436589	7
0	2869	936.36886020932	6
0	2875	936.773136372206	5
0	2882	937.277151861673	6
0	2883	937.433160328324	5
0	2888	939.042498506603	4
0	2896	942.793202671281	5
0	2900	943.503959588496	6
0	2904	949.623481523158	7
0	2905	950.493949753062	6
0	2913	956.301567965486	5
0	2919	957.060319478757	6
0	2920	957.647493001908	5
0	2925	958.217615110921	4
0	2931	959.078998062083	5
0	2933	959.54010576821	4
0	2939	959.904502271335	5
0	2943	960.306561668564	6
0	2947	964.22555976525	5
0	2954	965.345154180308	6
0	2956	966.151076403704	7
0	2957	967.306168134962	6
0	2964	968.993313755465	7
0	2965	969.280605630633	6
0	2970	970.543369945404	5
0	2976	971.178864841649	6
0	2980	973.840480749366	5
0	2986	974.364827891668	6
0	2987	974.491335821226	5
0	2992	974.590628039343	4
0	2998	977.296818106277	3
0	3007	978.412086025575	2
0	3018	985.583760936331	1
0	3026	988.852873017152	2
0	3030	993.147263715134	1
0	3036	993.923567412048	2
0	3037	995.940159062611	1
0	3047	998.55580035504	2
0	3048	998.648542972067	1
0	3053	1002.555311240468	0
0	3066	1004.01676604757	1
0	3067	1004.30537430213	0
0	3120	1016.931708464307	1
0	3121	1017.572854155362	0
0	3131	1022.197873406712	1
0	3134	1023.781474315342	0
0	3145	1026.978283323	1
0	3147	1027.158837763364	2
0	3149	1027.401458638418	1
0	3155	1029.292008883003	0
0	3164	1032.114953087916	1
0	3165	1033.445309478658	0
0	3194	1040.696123557633	1
0	3195	1042.498000776055	0
0	3217	1046.568558894889	1
0	3221	1049.550413665659	2
0	3222	1050.136035722844	1
0	3228	1051.800524106668	0
0	3234	1052.549347089519	1
0	3241	1056.09725245443	2
0	3242	1056.130126311129	1
0	3249	1057.696789832824	0
0	3281	1071.346126489432	1
0	3282	1072.099283196995	0
0	3294	1075.304612810286	1
0	3298	1076.299022571993	0
0	3304	1076.555326258085	1
0	3308	1078.326577803172	2
0	3309	1080.565085971474	1
0	3316	1081.045327782739	2
0	3317	1081.830562688955	1
0	3324	1082.365728514029	2
0	3326	1083.327941033847	1
0	3332	1083.956892376742	2
0	3333	1084.498070228224	1
0	3344	1090.910218590607	2
0	3347	1091.958763183654	3
0	3348	1096.520194394347	2
0	3358	1102.720519221067	1
0	3366	1106.752679918992	2
0	3367	1110.505757894623	1
0	3372	1110.891284923111	0
0	3395	1114.366343085931	1
0	3397	1116.864679576853	2
0	3399	1116.898412797593	3
0	3401	1117.867358486608	4
0	3405	1118.181195295276	5
0	3407	1118.421053043038	6
0	3408	1118.679875605992	5
0	3414	1118.751269692374	6
0	3416	1119.217316540744	7
0	3419	1119.502017412466	8
0	3422	1119.727187910504	9
0	3423	1120.698979226472	8
0	3432	1124.245647905725	9
0	3434	1127.015474802051	10
0	3435	1128.091207412559	9
0	3442	1131.399663703105	10
0	3443	1131.966565888538	9
0	3449	1133.46059925199	8
0	3454	1133.776454258549	7
0	3460	1134.48764226394	8
0	3465	1136.719917182453	9
0	3466	1136.76260330039	8
0	3476	1140.245055159571	9
0	3477	1141.107319633554	8
0	3483	1142.590830561738	7
0	3488	1146.059157783615	6
0	3494	1147.884193357425	7
0	3496	1150.111214872009	6
0	3502	1150.39945989738	7
0	3506	1152.864905646933	8
0	3507	1156.376646863833	7
0	3514	1160.277375799988	8
0	3515	1160.9939986588	7
0	3521	1161.890722415928	6
0	3526	1162.397893078523	5
0	3534	1163.890057377607	4
0	3540	1164.732095320762	3
0	3546	1166.179680216544	2
0	3551	1167.780956300906	1
0	3556	1168.584560275772	0
0	3572	1176.108408781559	1
0	3573	1178.998389661466	0
0	3580	1182.632823799194	1
0	3584	1184.030595398787	2
0	3585	1184.071345783667	1
0	3591	1186.22535615925	2
0	3595	1189.079188784071	3
0	3601	1192.054629281422	4
0	3602	1193.746876923197	3
0	3608	1193.820342771859	4
0	3611	1194.830505012126	5
0	3614	1195.184791633736	4
0	3623	1197.281367579485	3
0	3628	1198.455360720899	2
0	3633	1198.614907409743	1
0	3637	1199.344442415671	2
0	3644	1202.1842265248	3
0	3646	1203.087919427862	4
0	3647	1204.344358882667	3
0	3652	1208.266050077274	2
0	3660	1212.390711302449	3
0	3663	1216.248124300284	2
0	3668	1218.165290089223	1
0	3673	1220.108445423922	0
0	3677	1221.304743744371	1
0	3679	1221.501376645583	2
0	3685	1224.311949794937	3
0	3688	1224.643438991129	2
0	3692	1224.939074043547	3
0	3696	1228.264721532521	4
0	3699	1229.113319182157	3
0	3706	1231.810685869285	2
0	3715	1235.157547449869	3
0	3719	1239.750309271841	2
0	3725	1240.147587287984	3
0	3728	1242.536414935383	4
0	3729	1242.816287944679	3
0	3735	1243.182884033328	4
0	3737	1244.726416377897	3
0	3743	1245.250352262319	4
0	3746	1247.051233107086	5
0	3748	1248.875719738567	6
0	3751	1250.355015035836	5
0	3756	1250.632000655257	4
0	3765	1253.337069258548	3
0	3772	1256.157342014764	4
0	3773	1258.926530860368	3
0	3778	1259.632851748889	2
0	3785	1262.391949073777	1
0	3790	1264.255114468976	0
0	3796	1264.896004019743	1
0	3800	1267.231217212336	2
0	3801	1267.939083721752	1
0	3807	1268.802826238511	2
0	3808	1269.435745419178	1
0	3816	1269.942329442247	2
0	3817	1270.360127237862	1
0	3823	1272.152055747242	2
0	3825	1273.199087757048	1
0	3830	1273.735377328601	0
0	3851	1277.773177949752	1
0	3853	1280.263971973134	0
0	3879	1289.894998435818	1
0	3881	1290.275389265029	2
0	3883	1293.201642448834	3
0	3884	1293.277290759789	2
0	3891	1295.084510597701	3
0	3892	1295.213669826324	2
0	3902	1296.45872507557	1
0	3908	1300.333424199189	0
0	3914	1300.424722000604	1
0	3915	1301.289625472573	0
0	3929	1307.251508474237	1
0	3930	1308.611712338423	0
0	3936	1308.722378283641	1
0	3940	1316.061947697237	0
0	3960	1318.88494156745	1
0	3961	1319.075199565629	0
0	3988	1327.067182064087	1
0	3991	1328.833791337367	0
0	3999	1332.372973924293	1
0	4006	1336.618276916941	2
0	4009	1338.535730369278	1
0	4015	1340.194332132465	0
0	4029	1344.662539331439	1
0	4030	1344.879144094858	0
0	4047	1354.559633855105	1
0	4051	1356.932578687353	2
0	4054	1359.008598355496	1
0	4060	1360.185894526731	2
0	4063	1361.385246713825	3
0	4064	1362.070700056428	2
0	4071	1363.056756338354	1
0	4078	1364.890364766677	0
0	4109	1375.587553258727	1
0	4111	1377.786127617883	2
0	4112	1378.526472426712	1
0	4119	1380.248054969716	0
0	4140	1390.629027646307	1
0	4143	1391.451765819593	0
0	4162	1396.762694874762	1
0	4163	1397.491439488123	0
0	4193	1412.966588402188	1
0	4195	1416.025790649382	2
0	4196	1419.637414011736	1
0	4202	1419.767215871766	2
0	4204	1422.175707903359	1
0	4210	1423.082091956198	2
0	4214	1425.702178254333	3
0	4215	1426.593483084574	2
0	4221	1427.156250266527	1
0	4230	1429.75164506585	0
0	4236	1429.775089178042	1
0	4239	1431.626690850783	2
0	4241	1434.127221273724	1
0	4247	1436.763514294634	0
0	4270	1443.461619287843	1
0	4272	1444.10986870218	2
0	4273	1445.346421088275	1
0	4279	1446.172891003693	0
0	4297	1454.392492757015	1
0	4298	1455.654369218969	0
0	4313	1460.078863931522	1
0	4317	1462.259749443871	2
0	4321	1466.341850751994	3
0	4323	1468.34200638703	4
0	4325	1468.358319722117	5
0	4326	1468.445043362223	4
0	4337	1472.907660599631	5
0	4338	1473.156985605305	4
0	4344	1473.233798498408	5
0	4347	1475.183724929949	6
0	4348	1476.395513155908	5
0	4354	1478.365245572629	4
0	4360	1482.668696161578	3
0	4366	1485.645056492654	4
0	4367	1485.71613460047	3
0	4374	1486.232861783311	4
0	4376	1487.243762772073	5
0	4377	1487.851837824056	4
0	4384	1488.298547667386	5
0	4385	1488.538263207384	4
0	4390	1488.890798809428	3
0	4398	1491.359006240534	4
0	4399	1491.930951000647	3
0	4404	1496.836485880444	2
0	4408	1497.01974863259	3
0	4416	1503.030250121428	2
0	4421	1503.032762715123	1
0	4425	1504.998815543458	2
0	4428	1507.342286906668	1
0	4440	1511.151634739606	2
0	4442	1517.05464998051	3
0	4444	1517.205529363902	4
0	4445	1518.100669070371	3
0	4450	1518.22766342446	2
0	4456	1518.486991509051	3
0	4458	1519.105892825461	4
0	4459	1519.295698173564	3
0	4464	1522.814244600169	2
0	4470	1523.781687382583	3
0	4471	1525.824619719924	2
0	4480	1530.332580562964	1
0	4487	1536.239854775774	0
0	4504	1539.924209718536	1
0	4506	1540.020639374417	2
0	4508	1540.678787927528	3
0	4509	1541.614915808201	2
0	4514	1543.730774256811	1
0	4525	1549.567126685291	0
0	4536	1553.481015695802	1
0	4543	1556.96772037594	0
0	4557	1558.806227309288	1
0	4561	1560.03683638417	2
0	4562	1560.423807439226	1
0	4568	1562.212772177218	2
0	4569	1562.707111250675	1
0	4574	1562.798190630775	0
0	4586	1563.977506783689	1
0	4589	1566.651171479256	0
0	4603	1572.017146060844	1
0	4605	1572.108302333676	2
0	4609	1575.225230650061	3
0	4611	1575.545777876107	4
0	4612	1576.405289892942	3
0	4617	1576.712077333266	2
0	4623	1579.143672979341	1
0	4629	1580.574308793663	2
0	4632	1582.304207042174	1
0	4638	1582.795383333796	2
0	4639	1583.983461854162	1
0	4644	1584.412450603589	0
0	4651	1585.286772141766	1
0	4655	1586.824394181038	2
0	4658	1588.584045586946	1
0	4665	1589.788402950169	0
0	4697	1602.915003969076	1
0	4699	1605.219269955249	2
0	4704	1606.664964598099	1
0	4710	1609.836651800728	0
0	4720	1613.949208447665	1
0	4722	1614.027567715446	2
0	4725	1614.953655995814	1
0	4730	1616.117756411995	0
0	4765	1631.926664846093	1
0	4771	1634.900874787807	2
0	4774	1637.427800807704	1
0	4780	1639.793899673084	0
0	4787	1642.05770258236	1
0	4788	1642.853316081813	0
0	4814	1652.320971690513	1
0	4816	1656.249046013536	0
0	4827	1656.518667583707	1
0	4828	1656.68958108297	0
0	4835	1659.64248321208	1
0	4838	1660.461443480399	2
0	4839	1660.598166116847	1
0	4849	1665.656450013981	0
0	4855	1667.920009560164	1
0	4858	1668.440408303538	2
0	4859	1668.946651114513	1
0	4865	1673.683711851647	0
0	4875	1677.058370055516	1
0	4877	1677.411571659341	2
0	4882	1680.912424892568	1
0	4889	1682.391446200004	2
0	4890	1684.487695312751	1
0	4896	1688.835450442845	0
0	4903	1689.219754715608	1
0	4906	1689.385087385498	0
0	4914	1689.617511789514	1
0	4915	1691.091671234506	0
0	4926	1691.667977263485	1
0	4929	1694.086592969187	0
0	4939	1695.473550644799	1
0	4940	1696.822992257993	0
0	4947	1697.560014846273	1
0	4949	1699.05440095392	2
0	4950	1699.262389599946	1
0	4955	1699.828196078133	0
0	4964	1700.758286842356	1
0	4967	1701.387655659164	2
0	4970	1703.290579815635	3
0	4972	1703.850547247421	4
0	4975	1705.973784027244	5
0	4979	1707.430940089536	4
0	4985	1709.481316219581	5
0	4987	1709.668299863393	6
0	4989	1710.723722638592	7
0	4990	1710.810067011991	6
0	4997	1714.895841193306	5
0	5002	1714.898843615215	4
0	5010	1717.447046243029	3
0	5018	1718.892155679281	2
0	5026	1720.40272439447	3
0	5027	1720.527539061485	2
0	5033	1721.024026494936	3
0	5038	1724.019475266705	2
0	5043	1725.530749118187	1
0	5049	1725.98999045079	2
0	5050	1727.982936840122	1
0	5058	1729.215139478328	0
0	5072	1731.030875183164	1
0	5074	1732.559581013209	2
0	5076	1734.698903669909	3
0	5077	1735.186202948966	2
0	5082	1735.965939486486	1
0	5090	1737.603354575376	0
0	5110	1744.285699019663	1
0	5111	1746.305121159334	0
0	5124	1748.967198837338	1
0	5125	1751.441935511557	0
0	5140	1756.364274935798	1
0	5141	1756.931998214415	0
0	5163	1763.232710286649	1
0	5165	1763.346801050225	2
0	5166	1764.297596585494	1
0	5171	1764.889782820615	0
0	5180	1769.153166887032	1
0	5182	1769.475382706786	2
0	5183	1769.797062385715	1
0	5191	1773.68270998914	0
0	5223	1789.61393079447	1
0	5225	1790.924806248976	2
0	5229	1791.739841906073	3
0	5231	1793.877223359163	2
0	5237	1794.064987173226	3
0	5239	1795.599031059289	4
0	5241	1796.367727232093	5
0	5242	1797.351598677259	4
0	5247	1797.936483395213	3
0	5254	1802.338594088358	4
0	5255	1802.783580645473	3
0	5260	1803.634002727572	2
0	5264	1803.788384722416	3
0	5266	1805.460043498861	4
0	5269	1806.066005182088	3
0	5280	1812.051274790766	2
0	5285	1812.808800985911	1
0	5292	1813.499528020484	2
0	5295	1813.678519779288	3
0	5296	1814.292488415984	2
0	5304	1819.19420451464	3
0	5306	1820.086522647913	4
0	5308	1820.569861390712	5
0	5309	1820.762424462747	4
0	5316	1821.209230659335	3
0	5323	1822.531904627587	2
0	5329	1824.922747492998	1
0	5337	1825.984647227328	2
0	5338	1826.865748747676	1
0	5346	1830.325976833752	2
0	5350	1831.80123195081	1
0	5356	1832.890185265384	2
0	5357	1833.481972718282	1
0	5364	1834.60633420498	2
0	5365	1836.933508763842	1
0	5370	1837.776042949696	0
0	5389	1841.730062213846	1
0	5390	1843.050940141201	0
0	5405	1845.345098986724	1
0	5408	1847.092728055496	0
0	5433	1851.863817446372	1
0	5435	1852.177287367055	0
0	5450	1860.515242153386	1
0	5451	1861.454227938263	0
0	5458	1862.155606165613	1
0	5459	1862.609636141049	0
0	5465	1862.774717920799	1
0	5470	1866.076192386052	0
0	5478	1867.026712488285	1
0	5479	1867.503238257815	0
0	5491	1870.282989764576	1
0	5492	1872.345517431437	0
0	5506	1873.636550625722	1
0	5507	1874.023937050065	0
0	5514	1874.556293834619	1
0	5516	1874.843540193347	2
0	5518	1875.179221969546	3
0	5524	1877.819235686718	4
0	5526	1878.573316350902	5
0	5531	1881.81525444487	4
0	5539	1882.631269653056	3
0	5544	1883.238191201157	2
0	5552	1886.218581569775	3
0	5558	1889.902502817116	4
0	5562	1892.26031321798	5
0	5563	1893.212222815243	4
0	5568	1893.73195081516	3
0	5573	1894.835315269346	2
0	5581	1895.855315549207	1
0	5588	1896.466871652497	0
0	5602	1899.906336782429	1
0	5603	1901.285433543914	0
0	5610	1901.899269850115	1
0	5611	1902.81939121814	0
0	5624	1904.59118109185	1
0	5626	1905.630496529863	2
0	5628	1906.532155354608	3
0	5629	1907.647976778726	2
0	5638	1911.424006275028	3
0	5639	1911.519355822269	2
0	5646	1914.170921622889	1
0	5654	1915.563504275863	2
0	5655	1915.846432976937	1
0	5661	1918.471797066901	0
0	5673	1923.673552961272	1
0	5675	1923.793917586565	2
0	5679	1924.955180359495	3
0	5681	1925.46432758603	4
0	5683	1925.969096038312	5
0	5684	1929.046867349234	4
0	5689	1929.352762961851	3
0	5698	1930.618542521626	2
0	5706	1931.333448664911	1
0	5713	1931.899058766141	0
0	5719	1932.195112027846	1
0	5721	1934.144456939534	0
0	5729	1934.437352671317	1
0	5731	1934.60967407188	0
0	5742	1937.464742725614	1
0	5743	1937.626924094626	0
0	5749	1937.917533474413	1
0	5753	1939.305898997558	2
0	5755	1941.76373560707	3
0	5756	1942.837037254906	2
0	5761	1943.023849814108	1
0	5766	1943.793878103444	0
0	5787	1948.23199900123	1
0	5788	1950.016047651702	0
0	5796	1952.296194692025	1
0	5799	1953.450021643893	2
0	5802	1955.632070891076	3
0	5803	1956.051462150234	2
0	5810	1956.47284741583	3
0	5812	1956.744870973545	4
0	5814	1957.903262068812	5
0	5815	1957.919183423421	4
0	5820	1958.058268325147	3
0	5827	1960.756904666861	4
0	5828	1962.885514051328	3
0	5834	1964.100011539093	2
0	5839	1964.558502867987	1
0	5846	1966.005689840852	2
0	5849	1967.014166535253	1
0	5858	1972.204243555005	0
0	5869	1973.263290452989	1
0	5870	1974.125915562797	0
0	5879	1976.389169514938	1
0	5881	1980.585975384204	2
0	5883	1981.000659836142	3
0	5884	1984.329737988823	2
0	5890	1985.950966856638	1
0	5905	1989.345183790008	2
0	5906	1992.389255449015	1
0	5912	1993.654491706352	2
0	5914	2000.678807227718	3
0	5915	2001.138731860347	2
0	5920	2002.124441959759	1
0	5925	2002.22715507369	0
0	5960	2010.998241807212	1
0	5967	2012.463931788358	0
0	5973	2013.153000146068	1
0	5977	2013.749078901048	2
0	5979	2014.590953631928	3
0	5982	2016.374098671911	4
0	5987	2019.859115472408	3
0	5992	2020.245998100155	2
0	5998	2021.427611071473	3
0	5999	2021.736169674187	2
0	6004	2021.806347276982	1
0	6011	2024.603999913005	0
0	6025	2027.270243956434	1
0	6027	2032.470233684735	2
0	6029	2032.829651066171	3
0	6030	2035.186532415827	2
0	6037	2035.40279200154	1
0	6045	2036.394919360566	0
0	6052	2039.590352185485	1
0	6055	2042.088604680592	0
0	6071	2050.564976879247	1
0	6072	2053.393534760512	0
0	6081	2055.496927642542	1
0	6085	2056.356291444204	2
0	6090	2059.160081107838	3
0	6093	2061.248612021411	2
0	6099	2061.261832581786	3
0	6100	2061.916149257113	2
0	6106	2062.923218496384	1
0	6111	2063.514196678701	0
0	6122	2065.57794678176	1
0	6123	2067.42513702655	0
0	6136	2071.091320623518	1
0	6138	2071.433450620193	2
0	6141	2072.995437820131	1
0	6146	2073.298204660281	0
0	6191	2091.919526399581	1
0	6193	2093.443822572077	2
0	6201	2097.55590851983	3
0	6203	2098.170954816433	4
0	6206	2099.499778864522	3
0	6212	2100.36460427034	2
0	6218	2105.104816052902	1
0	6224	2106.965996452791	0
0	6237	2112.83735279317	1
0	6239	2113.048728319025	2
0	6240	2113.369690337177	1
0	6246	2113.391544319806	2
0	6255	2119.577077011162	1
0	6267	2125.267955106855	2
0	6269	2128.983772961623	3
0	6271	2130.478577170665	4
0	6273	2131.66251177157	5
0	6274	2132.885277755554	4
0	6280	2133.038138282625	3
0	6285	2133.76313156299	2
0	6291	2133.983747345466	1
0	6299	2137.559772142404	0
0	6311	2140.459733065916	1
0	6315	2141.696390577865	2
0	6318	2143.283569503374	1
0	6324	2144.48422999935	0
0	6340	2148.688763187318	1
0	6342	2150.933814995978	2
0	6343	2151.613295979551	1
0	6350	2152.682785398728	2
0	6351	2154.196167831364	1
0	6356	2155.668553003749	0
0	6371	2158.035611396634	1
0	6372	2158.45078244316	0
0	6383	2160.450061116684	1
0	6385	2160.600536432375	2
0	6387	2162.092315713145	3
0	6392	2164.33048081749	2
0	6397	2165.166489894489	1
0	6403	2165.186112161945	2
0	6405	2166.512364108367	3
0	6411	2171.418930487743	4
0	6415	2175.053476213611	5
0	6418	2177.829366350802	4
0	6424	2179.220829420229	3
0	6432	2179.298061650337	4
0	6435	2182.766761601125	3
0	6445	2185.475764469018	2
0	6451	2187.957566219672	3
0	6453	2189.71124123391	4
0	6454	2189.878169127614	3
0	6459	2190.806680398679	2
0	6464	2191.642480336421	1
0	6471	2194.674505114013	2
0	6472	2195.051509583745	1
0	6478	2195.324697018484	2
0	6481	2197.51395729076	1
0	6488	2199.925280645804	0
0	6501	2205.581185368038	1
0	6503	2207.652679307815	0
0	6514	2210.746291966228	1
0	6515	2210.900924912558	0
0	6524	2214.916225168089	1
0	6526	2216.267941868738	2
0	6527	2216.300326738152	1
0	6533	2217.005185546186	2
0	6535	2217.504436388179	1
0	6543	2220.645240485645	0
0	6549	2220.757755090239	1
0	6553	2222.445640387258	0
0	6592	2236.532396114227	1
0	6593	2237.909681395974	0
0	6611	2243.986972272705	1
0	6621	2251.392277274456	2
0	6624	2253.690517550903	1
0	6632	2255.588623066675	0
0	6641	2257.727057052983	1
0	6644	2259.762071465011	0
0	6659	2266.335617014624	1
0	6661	2266.693604266397	2
0	6666	2269.174389480709	1
0	6671	2269.769058939693	0
0	6680	2270.102049502918	1
0	6685	2272.015892061737	0
0	6700	2274.064502929971	1
0	6702	2274.343631268171	2
0	6704	2275.010476116342	3
0	6707	2276.255967787819	2
0	6712	2276.939814807278	1
0	6718	2278.647171894919	0
0	6726	2279.947599739732	1
0	6727	2282.209286793569	0
0	6737	2283.569007297703	1
0	6739	2284.6771369126	0
0	6766	2290.485866235865	1
0	6767	2291.872023818177	0
0	6808	2304.688780676407	1
0	6811	2308.019826135232	0
0	6821	2308.790350446688	1
0	6823	2309.234441405737	2
0	6826	2311.297521248827	1
0	6831	2311.303967825698	0
0	6837	2311.871676234575	1
0	6841	2314.267046349901	2
0	6842	2314.374005805444	1
0	6848	2314.606621278826	2
0	6849	2315.320439721478	1
0	6856	2317.783725560497	0
0	6872	2321.264742353024	1
0	6876	2323.405931042624	2
0	6877	2324.164207135277	1
0	6885	2325.011545291846	0
0	6904	2332.771957999843	1
0	6905	2334.980385449202	0
0	6922	2339.08764699482	1
0	6925	2342.58158259027	0
0	6935	2344.928351258133	1
0	6937	2346.724576674663	2
0	6939	2346.844412582487	3
0	6944	2351.133832392468	4
0	6946	2351.661710467247	5
0	6948	2354.680118664669	6
0	6952	2357.326430968746	7
0	6954	2359.162299491917	8
0	6955	2359.434201641408	7
0	6960	2359.633132236938	6
0	6965	2359.917871527776	5
0	6973	2362.42004826295	6
0	6976	2365.609459554511	7
0	6977	2366.064920813498	6
0	6984	2367.775958534724	7
0	6985	2368.342684946636	6
0	6993	2369.032539903515	7
0	6995	2369.509866447541	8
0	6997	2370.226114361611	9
0	6999	2370.295827426372	10
0	7001	2376.987863244282	9
0	7006	2378.431105389687	8
0	7011	2378.823729938492	7
0	7019	2381.062903613982	6
0	7026	2384.318557251128	7
0	7028	2384.951764367683	6
0	7036	2385.746403033386	7
0	7037	2386.323461220421	6
0	7043	2388.59666470764	5
0	7049	2390.107106588371	6
0	7050	2391.4118376303	5
0	7058	2392.55257245833	4
0	7064	2392.834408681313	5
0	7067	2393.091838604189	6
0	7068	2395.816641831014	5
0	7073	2396.360403396193	4
0	7078	2397.080529878459	3
0	7084	2399.565631824437	4
0	7086	2399.776401179636	5
0	7087	2400.138703370318	4
0	7094	2400.304016102569	3
0	7105	2407.392322495953	2
0	7110	2407.690634489975	1
0	7115	2407.730211945042	0
0	7162	2423.101415371937	1
0	7164	2423.42239613107	2
0	7167	2425.265791658485	1
0	7173	2426.298331862248	2
0	7178	2429.601947045803	3
0	7182	2430.760568492359	4
0	7183	2433.54330446021	3
0	7189	2433.698424426635	4
0	7191	2435.326409808719	5
0	7192	2435.551898575479	4
0	7197	2435.820204701848	3
0	7203	2436.350384899192	4
0	7208	2438.061550227987	5
0	7213	2438.858126886547	6
0	7214	2438.931297083857	5
0	7223	2440.123559482922	4
0	7228	2440.476456896033	3
0	7238	2442.749281574105	4
0	7240	2443.676115477971	3
0	7251	2446.084334410895	4
0	7256	2448.450844054186	5
0	7261	2449.666654339445	4
0	7266	2449.750714986012	3
0	7272	2451.867676422348	2
0	7278	2454.321495486805	1
0	7288	2455.240224687343	0
0	7296	2457.554806855391	1
0	7297	2460.580282112145	0
0	7324	2472.52136113527	1
0	7328	2474.324161086426	2
0	7329	2476.197661317191	1
0	7335	2476.267050461046	2
0	7337	2478.000466169404	3
0	7338	2478.77345853719	2
0	7343	2478.976224654361	1
0	7351	2480.507964081906	2
0	7353	2480.826195455191	1
0	7361	2481.478776808249	0
0	7382	2484.879219922342	1
0	7383	2485.087572239269	0
0	7403	2492.148283557312	1
0	7405	2492.323846508212	2
0	7406	2492.883023123507	1
0	7411	2494.062688875552	0
0	7419	2499.949010227472	1
0	7420	2501.666768672314	0
0	7433	2503.477756207264	1
0	7438	2507.718019148165	2
0	7439	2508.122984394051	1
0	7446	2508.500070556716	2
0	7447	2510.61509874764	1
0	7453	2513.171254435561	0
0	7461	2514.231657301766	1
0	7463	2514.970138684534	2
0	7465	2516.400270327336	3
0	7467	2516.536202506496	4
0	7469	2521.427408832427	5
0	7472	2521.715918138373	4
0	7479	2524.291802823358	3
0	7484	2524.811840938823	2
0	7489	2524.873662789696	1
0	7494	2525.17318654945	0
0	7498	2525.740608805501	1
0	7500	2526.588439220019	2
0	7506	2531.722411007126	1
0	7512	2532.384928424269	2
0	7515	2533.615555308265	1
0	7521	2534.312039363182	0
0	7528	2535.351155484804	1
0	7529	2536.168431137421	0
0	7558	2542.473564638658	1
0	7559	2542.902050183965	0
0	7580	2545.818142127697	1
0	7583	2548.82802860519	0
0	7596	2550.490900291797	1
0	7600	2553.323752475762	0
0	7627	2564.57986009158	1
0	7630	2567.136812671079	0
0	7643	2572.416373167524	1
0	7644	2572.453488341588	0
0	7670	2576.662114014769	1
0	7675	2577.643912847546	0
0	7681	2577.758557869857	1
0	7684	2579.646126624818	0
0	7695	2586.820168509706	1
0	7696	2587.365565642464	0
0	7705	2591.197701363381	1
0	7709	2594.124266427888	2
0	7710	2594.382276284537	1
0	7715	2595.609609813712	0
0	7726	2597.497259815687	1
0	7728	2598.59532328711	2
0	7734	2601.66772933828	1
0	7748	2605.71017744682	2
0	7749	2606.57705392811	1
0	7756	2608.034338254877	0
0	7768	2611.12910238269	1
0	7771	2611.555530084867	2
0	7776	2614.392251960563	3
0	7777	2615.769961944212	2
0	7782	2616.415851695476	1
0	7789	2616.786244592865	2
0	7790	2617.93667980414	1
0	7796	2618.288178612023	0
0	7806	2620.990127831891	1
0	7810	2623.968434284922	0
0	7822	2624.853725280858	1
0	7823	2626.040499775148	0
0	7838	2630.551188256563	1
0	7842	2631.350859945033	2
0	7845	2633.279748185599	1
0	7851	2635.370559834115	0
0	7857	2635.379838081177	1
0	7863	2637.948932579085	2
0	7866	2638.515073111719	1
0	7874	2641.539769235549	2
0	7875	2645.530635065666	1
0	7881	2646.557780732021	2
0	7882	2647.190754496594	1
0	7888	2647.62118051866	0
0	7906	2651.61696907804	1
0	7907	2652.111112964426	0
0	7914	2653.208868096129	1
0	7915	2653.289409329877	0
0	7922	2653.518334857507	1
0	7925	2653.884640545426	2
0	7926	2654.887490956673	1
0	7933	2656.652493048999	2
0	7935	2657.605867414671	3
0	7938	2658.784245032036	2
0	7943	2659.284583426115	1
0	7954	2664.503229908452	2
0	7957	2665.013699908776	1
0	7963	2665.330054000197	2
0	7966	2668.970516405794	1
0	7971	2669.051036710172	0
0	7978	2669.96880816528	1
0	7981	2670.155248527071	2
0	7982	2670.592471902224	1
0	7989	2671.118229478513	0
0	7997	2672.693942140201	1
0	7999	2672.752255576817	2
0	8001	2673.811219458138	3
0	8003	2674.141983160932	4
0	8004	2674.907723961728	3
0	8010	2676.051302214101	2
0	8016	2676.230669538235	1
0	8022	2676.293272914046	2
0	8025	2676.509395108888	3
0	8027	2680.016883008533	2
0	8034	2681.116991574563	3
0	8035	2681.210536567909	2
0	8040	2681.533089352508	1
0	8045	2681.782938927642	0
0	8052	2682.691251815446	1
0	8053	2684.357330645494	0
0	8061	2685.539436559798	1
0	8063	2687.420394815214	0
0	8070	2689.014508244228	1
0	8071	2689.030265775384	0
0	8105	2696.08606731965	1
0	8107	2696.176757570863	2
0	8114	2700.229610769677	1
0	8119	2700.446174259966	0
0	8125	2701.673943383651	1
0	8129	2703.009081784033	2
0	8131	2705.119878898337	1
0	8137	2707.644263798418	0
0	8159	2718.056781424048	1
0	8161	2718.949520019033	2
0	8162	2719.590483548762	1
0	8170	2721.100981433835	0
0	8196	2727.803375001886	1
0	8199	2731.704031053154	0
0	8205	2733.548880505133	1
0	8210	2737.133901873057	2
0	8213	2737.937170799194	1
0	8221	2740.752863386557	2
0	8222	2742.089426243864	1
0	8228	2742.90021679574	2
0	8230	2743.876821609065	1
0	8237	2744.842989604397	0
0	8251	2746.86382886816	1
0	8253	2747.099418877276	2
0	8255	2748.363442862773	3
0	8259	2754.134176763538	2
0	8264	2754.273940721514	1
0	8270	2754.450252394514	2
0	8272	2754.749433305145	3
0	8275	2756.358396475885	4
0	8277	2756.702247172274	3
0	8283	2758.295652464763	4
0	8286	2759.453862271126	5
0	8287	2759.547489805937	4
0	8294	2760.092716760811	5
0	8298	2761.853146799231	6
0	8300	2762.272026839476	7
0	8301	2763.894358878617	6
0	8307	2764.04442912424	5
0	8314	2764.923475490877	4
0	8325	2768.606906289547	3
0	8331	2768.901309292377	2
0	8339	2770.439840215518	1
0	8348	2771.753346820851	2
0	8351	2773.931527617057	1
0	8357	2778.920324439424	0
0	8364	2780.653257986	1
0	8365	2781.286105002583	0
0	8383	2786.494564385374	1
0	8391	2791.859802157225	2
0	8393	2791.955015585024	3
0	8397	2792.839835401134	4
0	8398	2795.258939716701	3
0	8403	2795.331811581366	2
0	8410	2796.22260765103	1
0	8416	2796.630819006294	2
0	8418	2796.793496305699	3
0	8424	2799.802468258462	2
0	8429	2800.076489147851	1
0	8435	2800.332044301655	2
0	8436	2800.481653873724	1
0	8442	2801.652600371348	0
0	8463	2807.450104742203	1
0	8464	2808.028819509357	0
0	8470	2808.33081675648	1
0	8473	2811.001825686879	0
0	8493	2816.203607525763	1
0	8494	2816.600092575788	0
0	8501	2817.241651559782	1
0	8502	2819.568312177352	0
0	8508	2820.687077631322	1
0	8513	2821.924548248358	2
0	8517	2823.294728078295	3
0	8519	2823.77568885012	2
0	8525	2825.53564093976	3
0	8527	2826.346920523463	4
0	8528	2826.522963872205	3
0	8533	2827.665747435894	2
0	8538	2828.569876186773	1
0	8544	2828.652073180564	2
0	8546	2831.483801110123	3
0	8547	2833.711586721103	2
0	8551	2834.627057564686	3
0	8559	2836.05455762642	4
0	8561	2836.784668209747	3
0	8567	2836.887748210041	4
0	8569	2838.502372985059	3
0	8575	2839.839700361424	4
0	8577	2840.210743476958	5
0	8584	2842.744741652929	6
0	8588	2847.166350348288	7
0	8591	2847.273110514142	8
0	8594	2847.753133986668	7
0	8600	2851.470599617565	6
0	8606	2852.016896198859	7
0	8610	2857.627885088891	8
0	8611	2859.349683982404	7
0	8616	2863.313277152193	6
0	8626	2870.51573763886	5
0	8634	2872.37045333755	6
0	8641	2876.533346034045	7
0	8644	2880.419412652031	6
0	8650	2882.956782537012	7
0	8652	2883.243075904518	8
0	8654	2885.066296920762	9
0	8658	2886.363960457979	10
0	8661	2890.188818585074	9
0	8666	2890.784166722628	8
0	8672	2890.92373092188	9
0	8673	2892.839707643344	8
0	8682	2894.437993018577	9
0	8685	2897.202320962476	8
0	8692	2898.573683985132	9
0	8693	2900.249882180578	8
0	8700	2901.629449215147	7
0	8706	2902.253274199817	6
0	8711	2902.716109892547	5
0	8716	2903.05414368888	4
0	8724	2903.662513695644	5
0	8725	2905.959775216865	4
0	8733	2906.809278076213	5
0	8735	2908.743300613568	6
0	8737	2910.961577994085	7
0	8739	2911.224444271756	8
0	8744	2912.190988085904	7
0	8748	2912.218706157046	8
0	8750	2913.437419549895	9
0	8754	2915.969946229511	8
0	8762	2920.258991790617	7
0	8767	2921.673272036784	6
0	8777	2925.400059323511	5
0	8782	2925.412874970837	4
0	8788	2925.62131384135	5
0	8790	2926.741036331859	4
0	8799	2929.588052845789	3
0	8807	2930.689094815247	2
0	8813	2932.082773177869	3
0	8815	2932.606985192546	4
0	8816	2933.230561232891	3
0	8820	2933.391838158164	4
0	8822	2933.590530902933	5
0	8824	2933.614671619005	6
0	8827	2934.926901295505	5
0	8834	2938.042784314595	4
0	8838	2938.224639676485	5
0	8843	2939.641102028863	4
0	8851	2942.117860499384	3
0	8857	2942.793722116252	4
0	8858	2943.8591243673	3
0	8872	2949.818972784006	2
0	8880	2950.470962874206	3
0	8881	2950.742734452464	2
0	8887	2951.072331175772	3
0	8888	2952.645694948597	2
0	8894	2953.373987750528	1
0	8899	2953.4195464083	0
0	8912	2954.212994048558	1
0	8913	2955.182941757381	0
0	8953	2974.74124872838	1
0	8955	2974.811343486511	2
0	8958	2978.019165729383	1
0	8963	2978.390547066003	0
0	8993	2986.956923491924	1
0	8994	2987.652716528086	0
0	9001	2988.261375360613	1
0	9002	2989.638382012571	0
0	9010	2991.267145339079	1
0	9013	2993.925890481474	2
0	9014	2994.447752970672	1
0	9023	2996.642273509614	2
0	9024	2998.098896943257	1
0	9030	2999.038897097072	0
0	9036	2999.148262205363	1
0	9037	3001.255764700086	0
0	9045	3003.876768041299	1
0	9047	3004.864552841637	0
0	9069	3011.821443035828	1
0	9072	3011.958311763566	2
0	9073	3012.49864847598	1
0	9081	3014.329502226143	2
0	9082	3015.182988399782	1
0	9088	3016.684701620679	0
0	9095	3018.376282327663	1
0	9096	3018.718342141315	0
0	9102	3019.936236324872	1
0	9103	3020.002279046984	0
0	9121	3023.988640054112	1
0	9124	3024.638788353031	2
0	9126	3025.520122349785	3
0	9128	3025.894150160638	4
0	9133	3029.988171802127	5
0	9134	3031.208321390243	4
0	9140	3034.673358274916	3
0	9147	3034.91571222455	4
0	9148	3035.851657103782	3
0	9154	3036.479168988483	4
0	9157	3037.772985548947	5
0	9161	3039.562182336911	6
0	9162	3040.122245239499	5
0	9169	3040.615432216097	6
0	9171	3040.675399043641	7
0	9173	3041.94313519592	8
0	9176	3042.279080484083	7
0	9181	3043.204975342983	6
0	9190	3047.087602830149	5
0	9195	3047.474835737308	4
0	9201	3048.091710118714	5
0	9205	3050.791071445875	6
0	9207	3051.889370571148	7
0	9211	3056.165240966602	8
0	9212	3060.27111370111	7
0	9219	3063.078554097669	6
0	9225	3066.639099911782	5
0	9232	3067.428943203592	6
0	9234	3068.652706828622	5
0	9240	3069.932987540536	4
0	9246	3071.113124218994	3
0	9256	3072.91172735768	4
0	9260	3075.775158555022	5
0	9261	3076.971271141236	4
0	9266	3077.048031952652	3
0	9272	3077.124171565522	4
0	9275	3079.678913124631	3
0	9282	3084.86024900993	2
0	9290	3085.764861644776	1
0	9295	3086.87050725103	0
0	9332	3095.574930507043	1
0	9339	3098.379417953876	0
0	9353	3103.680519874195	1
0	9357	3107.272133706825	2
0	9358	3108.634258926307	1
0	9364	3110.71761749471	0
0	9374	3114.515515791119	1
0	9376	3114.652130198508	2
0	9379	3116.278151312411	1
0	9386	3116.832537452048	2
0	9388	3116.834400440632	3
0	9390	3117.855417582055	2
0	9396	3118.420420008626	3
0	9397	3118.761391762482	2
0	9403	3118.93754130693	3
0	9407	3120.43296136449	2
0	9414	3121.827421139251	3
0	9415	3121.928885942115	2
0	9424	3124.310779044866	3
0	9428	3127.001069346207	4
0	9429	3127.540705824523	3
0	9435	3132.449032690855	2
0	9442	3133.029663763079	3
0	9443	3134.276537943434	2
0	9448	3136.565347045658	1
0	9454	3136.785919688632	2
0	9455	3137.057159690642	1
0	9460	3140.186629861997	0
0	9469	3146.563570792786	1
0	9470	3147.844122180283	0
0	9476	3149.523384904274	1
0	9477	3151.535409170242	0
0	9484	3157.43153942771	1
0	9487	3159.01984942587	2
0	9492	3161.804412453171	1
0	9498	3165.18066689788	0
0	9505	3166.257466576028	1
0	9508	3168.806920228889	0
0	9525	3171.255996420303	1
0	9526	3171.538079697778	0
0	9553	3176.591069132427	1
0	9555	3179.893246781512	2
0	9557	3180.126571170589	3
0	9568	3184.07622021448	2
0	9575	3185.892145754018	3
0	9577	3185.983120499657	4
0	9583	3188.268687907827	5
0	9584	3188.720569117772	4
0	9592	3190.346634031078	5
0	9593	3191.00468091576	4
0	9604	3194.011648650475	3
0	9610	3194.365853737144	4
0	9612	3195.878747089894	3
0	9620	3197.84989892429	4
0	9623	3198.080697027191	5
0	9625	3200.723577459762	6
0	9626	3201.22583075678	5
0	9631	3202.157208001714	4
0	9638	3202.413000891067	3
0	9643	3202.511896847427	2
0	9649	3203.963350895822	3
0	9653	3204.720187503411	4
0	9655	3204.895087129009	5
0	9657	3205.732936903487	4
0	9668	3210.886476867146	5
0	9670	3211.661768806927	4
0	9677	3215.011740208152	3
0	9683	3215.835339976339	2
0	9690	3216.382137813708	1
0	9695	3216.528134122316	0
0	9712	3225.415156334301	1
0	9714	3227.821551229191	0
0	9730	3231.360652127007	1
0	9732	3231.749272431314	0
0	9738	3232.176905087685	1
0	9740	3232.65324779331	0
0	9748	3237.982385345138	1
0	9754	3239.27936972528	2
0	9756	3239.38238629792	3
0	9758	3240.230225627369	4
0	9761	3241.730965249927	3
0	9770	3242.007463195762	4
0	9771	3242.914666392801	3
0	9776	3243.304750440279	2
0	9782	3243.706000401814	1
0	9788	3246.322843308694	0
0	9795	3247.536382947688	1
0	9797	3248.339781411994	2
0	9798	3249.215609130634	1
0	9804	3250.036258423322	0
0	9826	3255.27318416727	1
0	9828	3256.477412891964	2
0	9830	3257.88966948149	3
0	9831	3260.980539388713	2
0	9838	3261.62883949298	1
0	9843	3261.868649166746	0
0	9864	3271.618593578264	1
0	9865	3272.512327066584	0
0	9879	3276.786642469723	1
0	9881	3277.151827712423	2
0	9882	3277.160686545972	1
0	9888	3279.260519155518	2
0	9890	3280.092542580792	1
0	9900	3282.70508647607	0
0	9908	3289.066909210643	1
0	9910	3291.135877561616	2
0	9912	3291.877479355213	3
0	9914	3293.677271585559	4
0	9915	3294.301532877595	3
0	9920	3294.677323636808	2
0	9926	3296.535223878233	1
0	9932	3296.709179010136	2
0	9938	3299.975105860449	1
0	9944	3300.621567341416	2
0	9948	3303.34940326004	1
0	9954	3303.818034995528	2
0	9956	3304.39823664412	1
0	9966	3306.625256627611	0
0	9990	3310.74964179973	1
0	9992	3310.824199076004	2
0	9997	3312.956721409774	1
0	10003	3313.268344643613	0
0	10010	3314.352387991398	1
0	10011	3317.429181234198	0
0	10017	3317.646307018627	1
0	10019	3318.078806264894	2
0	10021	3320.164860206122	1
0	10026	3321.832133705857	0
0	10069	3331.932907710884	1
0	10070	3334.169247296324	0
0	10082	3338.578544357036	1
0	10084	3338.791219340307	2
0	10088	3341.296681948793	3
0	10090	3341.786960233643	4
0	10091	3342.889044838597	3
0	10096	3343.449670469024	2
0	10106	3344.979438743342	3
0	10107	3345.715609151314	2
0	10114	3348.463862636375	3
0	10115	3349.554490015184	2
0	10120	3350.073028609796	1
0	10128	3351.092917323804	0
0	10137	3351.561931960201	1
0	10140	3352.767789093892	0
0	10149	3353.803011949238	1
0	10151	3353.996707986844	2
0	10157	3357.646938743776	1
0	10163	3357.939208562406	2
0	10166	3359.802908034246	1
0	10172	3359.96279286464	2
0	10174	3360.544072310595	1
0	10184	3361.949705091816	2
0	10185	3363.089609228824	1
0	10190	3363.948708490685	0
0	10208	3369.185287162294	1
0	10210	3369.230757055584	2
0	10215	3371.065174719478	3
0	10216	3371.335702168619	2
0	10221	3371.998744696341	1
0	10227	3372.94082369925	0
0	10239	3374.454384666449	1
0	10241	3378.206501303775	0
0	10248	3379.361343415005	1
0	10249	3383.105943394188	0
0	10266	3385.555369472774	1
0	10270	3388.439346735502	0
0	10278	3392.909767352124	1
0	10282	3394.536007354521	2
0	10283	3396.117413737284	1
0	10289	3399.678648210154	0
0	10295	3399.685358110484	1
0	10300	3406.187039116047	2
0	10302	3406.93360945208	3
0	10304	3408.776270273613	4
0	10308	3414.493633740494	5
0	10309	3414.949037878683	4
0	10315	3415.078918831641	5
0	10316	3415.786558919914	4
0	10322	3416.446438064284	5
0	10325	3417.609816545766	6
0	10327	3417.807632018248	7
0	10329	3418.072522256549	8
0	10332	3421.329909822675	9
0	10333	3424.226155839448	8
0	10338	3424.316612472564	7
0	10345	3426.415698580545	6
0	10351	3427.445332576832	5
0	10358	3429.071888068193	6
0	10359	3430.883295705984	5
0	10367	3434.460182387123	4
0	10372	3434.659347840903	3
0	10380	3435.614774836912	4
0	10385	3438.307949867861	5
0	10386	3440.975399723462	4
0	10392	3442.108380475083	3
0	10398	3442.737547507281	2
0	10404	3442.90023608162	3
0	10405	3443.549888618795	2
0	10412	3444.229241343997	3
0	10419	3447.844471086184	2
0	10424	3449.412114267224	1
0	10433	3451.431736996132	2
0	10434	3452.664282318854	1
0	10443	3454.758286653715	0
0	10452	3456.829103245165	1
0	10454	3457.71131013224	2
0	10456	3458.308525974058	3
0	10457	3461.560336812633	2
0	10462	3462.601455500074	1
0	10470	3464.055186942655	2
0	10472	3464.993533888173	3
0	10475	3467.94044712249	2
0	10481	3474.080466917665	1
0	10487	3475.760701424779	2
0	10488	3475.817566388286	1
0	10493	3476.518171232143	0
0	10506	3479.048834061556	1
0	10508	3479.93729007415	2
0	10511	3482.660246521034	1
0	10518	3482.869335115953	2
0	10519	3485.508153255546	1
0	10531	3491.209860796875	0
0	10551	3498.520935427459	1
0	10552	3499.152497789278	0
0	10558	3500.285359643991	1
0	10560	3500.633993702045	2
0	10564	3501.366127712931	1
0	10569	3502.304615660365	0
0	10575	3502.618010326128	1
0	10576	3503.103541126723	0
0	10608	3509.98273331095	1
0	10610	3511.07918522237	0
0	10617	3511.31919044794	1
0	10618	3511.404203544415	0
0	10630	3513.752737636638	1
0	10631	3514.205867034639	0
0	10647	3516.887860824452	1
0	10652	3522.005452071011	2
0	10655	3523.523866833383	1
0	10660	3524.648536653283	0
0	10677	3527.124210339269	1
0	10681	3529.654034254554	0
0	10687	3530.119480147149	1
0	10691	3533.020703040311	0
0	10701	3535.638815133918	1
0	10703	3535.709888654544	2
0	10708	3542.214801332428	3
0	10709	3542.682832273014	2
0	10717	3543.370686481754	3
0	10718	3543.423509738381	2
0	10723	3543.568342597068	1
0	10731	3547.537294343912	0
0	10765	3555.750253537353	1
0	10766	3556.411446827629	0
0	10773	3559.373593303014	1
0	10774	3560.01552767814	0
0	10808	3574.366515979836	1
0	10809	3575.25297964859	0
0	10823	3583.476669995147	1
0	10824	3583.564006737818	0
0	10830	3583.792907092838	1
0	10833	3585.041964874149	2
0	10836	3586.50656396665	1
0	10846	3591.634079102785	0
0	10855	3592.088276669042	1
0	10857	3595.077474799878	2
0	10860	3596.37940488225	1
0	10865	3597.035229683589	0
0	10873	3599.869654983047	1
0	10876	3603.937136956755	2
0	10877	3605.869486330567	1
0	10882	3606.709478387572	0
0	10888	3606.753180662077	1
0	10890	3606.936677749835	2
0	10892	3607.093213041482	3
0	10895	3607.310424090476	4
0	10899	3608.852728219607	3
0	10906	3611.409913232188	4
0	10908	3612.340585468933	3
0	10916	3616.134304344082	2
0	10922	3619.545235110053	1
0	10929	3620.853358437827	2
0	10930	3621.593503355684	1
0	10935	3622.384141304947	0
0	10950	3628.448278653013	1
0	10951	3630.61001161406	0
0	10971	3634.659512836842	1
0	10976	3638.877886977842	0
0	10985	3639.496670538462	1
0	10989	3640.327688413981	0
0	11003	3648.146821931814	1
0	11005	3650.390987481883	2
0	11008	3650.577560862283	1
0	11013	3651.004707520696	0
0	11035	3657.138651326362	1
0	11036	3657.458839367295	0
0	11057	3665.83705843859	1
0	11061	3667.713820197177	2
0	11063	3668.143362764342	3
0	11066	3668.952047878698	2
0	11071	3670.572510685098	1
0	11077	3672.446751165905	0
0	11086	3673.416876065637	1
0	11088	3673.895305479181	0
0	11094	3673.902997492688	1
0	11095	3673.905206405384	0
0	11104	3674.883691964545	1
0	11110	3676.826712307468	0
0	11116	3677.393734224931	1
0	11118	3677.71438545107	0
0	11146	3686.057798109791	1
0	11148	3686.477427178677	2
0	11150	3687.185378949541	3
0	11152	3693.341674641337	4
0	11157	3703.333934287878	3
0	11162	3704.54533873408	2
0	11170	3708.482659042028	1
0	11179	3713.992458387968	2
0	11180	3716.699220059545	1
0	11188	3718.776505966934	0
0	11205	3720.217654192648	1
0	11209	3722.10416936086	0
0	11221	3723.360113654947	1
0	11223	3723.57653461258	2
0	11225	3724.874100417127	3
0	11226	3725.122867016422	2
0	11234	3728.661916823427	3
0	11236	3729.118302136391	4
0	11240	3730.033414236126	5
0	11241	3731.475966134974	4
0	11247	3731.486332375437	5
0	11248	3731.492277477116	4
0	11253	3732.343781547959	3
0	11258	3732.771971179114	2
0	11263	3733.015561688396	1
0	11269	3735.527496736449	0
0	11280	3736.114440862292	1
0	11281	3736.331298772129	0
0	11300	3750.179384166096	1
0	11303	3750.620099084334	0
0	11309	3752.544602135094	1
0	11311	3752.790411576222	0
0	11330	3760.82271316825	1
0	11332	3761.073592802554	2
0	11335	3762.019420799368	1
0	11342	3763.383658738215	2
0	11344	3763.426092717019	3
0	11345	3764.520595032336	2
0	11350	3766.287624899017	1
0	11355	3768.3606344678	0
0	11366	3770.199903077662	1
0	11367	3770.229836941553	0
0	11383	3773.306355542846	1
0	11388	3775.214294814645	2
0	11389	3775.442018356073	1
0	11396	3776.652810968505	2
0	11399	3779.215889630489	3
0	11406	3782.486609939992	4
0	11408	3782.924261219148	5
0	11412	3784.166594361843	6
0	11413	3786.562216846558	5
0	11419	3787.293425387977	4
0	11425	3789.418941117348	5
0	11426	3789.750895650192	4
0	11431	3790.319613053972	3
0	11438	3790.614248939831	4
0	11441	3791.641301788972	5
0	11446	3796.740759625412	6
0	11448	3797.078021885258	5
0	11459	3801.790207099937	6
0	11462	3802.226896544714	5
0	11468	3804.282566242763	4
0	11473	3804.441697551275	3
0	11484	3808.206322697885	2
0	11489	3809.795848098547	1
0	11495	3809.895373364766	0
0	11507	3812.193172568427	1
0	11508	3812.899676949125	0
0	11521	3813.746573678557	1
0	11529	3816.254908735663	2
0	11530	3816.422974586154	1
0	11536	3820.182247163432	0
0	11548	3820.889476434278	1
0	11550	3824.777075642908	2
0	11552	3825.57085626668	3
0	11555	3827.846880994847	2
0	11561	3828.209363513042	3
0	11567	3828.721936846627	4
0	11569	3828.982805573724	3
0	11574	3830.564030885031	2
0	11580	3830.590841473006	3
0	11582	3831.371170497768	4
0	11586	3831.710225817245	5
0	11588	3831.734115051717	6
0	11593	3835.334853917804	5
0	11599	3835.763556195946	6
0	11603	3837.703115493432	5
0	11614	3843.373974134628	4
0	11621	3846.204350803131	3
0	11626	3846.703750011873	2
0	11633	3847.003352663395	3
0	11635	3848.163431236471	2
0	11641	3848.911925215156	3
0	11644	3851.51346401872	2
0	11651	3851.710881579862	3
0	11653	3853.054171883556	2
0	11659	3853.242510575479	3
0	11664	3854.133393635107	2
0	11670	3855.37997376644	1
0	11675	3857.357884331006	0
0	11681	3857.466805365037	1
0	11682	3858.106431571221	0
0	11701	3868.167532512839	1
0	11702	3869.274911748133	0
0	11725	3873.511243883883	1
0	11727	3873.558128026441	2
0	11734	3879.137311868313	3
0	11736	3879.280684809919	4
0	11737	3879.288637558108	3
0	11743	3879.877227242304	2
0	11749	3880.116648698128	3
0	11754	3881.872949486147	4
0	11755	3882.895998244544	3
0	11761	3887.718426796969	2
0	11766	3888.940118770618	1
0	11773	3891.470758154737	0
0	11784	3892.414423313864	1
0	11785	3892.525602841121	0
0	11799	3894.393405474849	1
0	11801	3894.881563635012	0
0	11816	3897.398367334829	1
0	11818	3898.721496677736	0
0	11824	3898.912534542973	1
0	11828	3901.642589829634	2
0	11831	3902.585050216846	1
0	11838	3903.65311336252	2
0	11841	3905.385901206733	1
0	11847	3906.268042988022	0
0	11859	3908.428867188141	1
0	11860	3908.49413787401	0
0	11872	3912.003124127164	1
0	11873	3912.179056668021	0
0	11879	3915.356099279697	1
0	11883	3919.611615637859	2
0	11886	3921.494402647375	1
0	11892	3921.818745416269	2
0	11893	3921.958804114243	1
0	11900	3922.332685791644	2
0	11901	3922.365320394161	1
0	11908	3923.673435777142	0
0	11921	3924.546366761384	1
0	11923	3926.813419053824	0
0	11965	3939.691966274382	1
0	11967	3940.429746122676	2
0	11969	3940.812375818253	3
0	11971	3941.486400140226	4
0	11972	3942.573651856585	3
0	11978	3944.454003309794	2
0	11987	3948.182934648246	1
0	11993	3949.957679838078	0
0	12028	3964.543981386105	1
0	12029	3965.376823252259	0
0	12043	3970.249148745199	1
0	12047	3973.209903198088	2
0	12048	3973.341345208723	1
0	12054	3974.326022582419	0
0	12073	3985.153823731091	1
0	12076	3987.60438213636	0
0	12107	3996.862054113415	1
0	12109	3998.204166845367	2
0	12110	3999.575566972076	1
0	12117	4002.437260496957	2
0	12119	4007.161309802976	3
0	12120	4007.819687428744	2
0	12126	4008.09854844941	3
0	12127	4008.188908348541	2
0	12133	4008.731208276602	1
0	12139	4009.315316882249	2
0	12145	4013.406314125124	3
0	12146	4015.525763443162	2
0	12152	4015.810956021109	1
0	12160	4016.735871555872	0
0	12175	4020.630836028939	1
0	12176	4023.387070387904	0
0	12194	4026.365334402815	1
0	12196	4030.757189141846	0
0	12203	4032.296978083141	1
0	12207	4032.321399929966	2
0	12209	4035.068304526843	1
0	12215	4035.978617757668	2
0	12217	4037.255668436121	1
0	12222	4038.610972919584	0
0	12232	4042.644138007602	1
0	12234	4044.793345434345	2
0	12235	4046.307460014296	1
0	12240	4046.744007634597	0
0	12246	4049.128588678477	1
0	12251	4049.935871531303	2
0	12255	4052.812457983279	1
0	12260	4053.023164393598	0
0	12273	4055.501116211607	1
0	12277	4057.956313742177	0
0	12294	4061.385191374547	1
0	12296	4061.985607922152	2
0	12298	4063.304404436585	3
0	12302	4063.990671009149	4
0	12306	4064.175701757626	5
0	12307	4064.292439152661	4
0	12312	4064.650862617308	3
0	12318	4066.065679191622	2
0	12325	4066.361431625879	1
0	12331	4067.834776302228	0
0	12337	4068.317225949672	1
0	12339	4069.434853196786	2
0	12340	4070.374759854238	1
0	12346	4072.137084814947	2
0	12350	4075.049425372678	1
0	12356	4075.051767741555	2
0	12360	4080.033448146075	3
0	12365	4081.595762829666	2
0	12370	4081.945085975798	1
0	12376	4082.906666284725	0
0	12395	4087.015056736256	1
0	12396	4087.377759456223	0
0	12418	4095.545029353001	1
0	12424	4099.688132295348	2
0	12425	4100.606276904166	1
0	12430	4101.153216993513	0
0	12445	4106.922695563193	1
0	12447	4108.897754048571	2
0	12448	4110.210976779158	1
0	12455	4110.978256549804	2
0	12457	4112.13085879358	1
0	12463	4113.365528146951	2
0	12464	4113.472626283805	1
0	12471	4116.116727576336	0
0	12483	4118.43190082322	1
0	12485	4118.509865944567	2
0	12487	4120.145836038391	1
0	12495	4123.182819025709	2
0	12502	4127.137447597769	3
0	12503	4129.251264452811	2
0	12509	4129.575377905919	3
0	12511	4130.8471838603	4
0	12512	4131.517246203759	3
0	12520	4132.652253279809	2
0	12526	4132.918519354102	1
0	12531	4134.835443089157	0
0	12537	4134.850544181168	1
0	12538	4135.580024219398	0
0	12581	4153.924141420259	1
0	12584	4157.602550026125	0
0	12596	4160.423277247388	1
0	12597	4162.439710354564	0
0	12613	4169.299180870582	1
0	12615	4169.892359447339	2
0	12616	4170.860949527518	1
0	12625	4173.576332570243	2
0	12626	4174.639101454223	1
0	12631	4175.29923988413	0
0	12637	4176.886045670433	1
0	12641	4177.179776997675	0
0	12649	4179.096365656323	1
0	12651	4179.212420405419	2
0	12652	4182.214750175547	1
0	12659	4184.334512479	0
0	12692	4199.100846644074	1
0	12696	4199.636176018898	2
0	12700	4201.58040482868	1
0	12706	4202.82947830888	0
0	12721	4204.899394485954	1
0	12725	4207.934704389138	0
0	12737	4208.319370964954	1
0	12739	4210.253084286715	2
0	12745	4213.125829488922	1
0	12750	4218.849292258892	0
0	12775	4225.774992491849	1
0	12776	4225.894080721219	0
0	12786	4229.279133263535	1
0	12791	4231.949344909621	0
0	12807	4232.856332836508	1
0	12811	4236.071409985418	2
0	12815	4241.456199574465	1
0	12824	4244.014089590803	2
0	12826	4244.582232930367	3
0	12828	4245.675675360002	2
0	12835	4246.688059620747	1
0	12843	4247.185204587546	2
0	12845	4248.35133916258	1
0	12851	4248.753703021632	2
0	12852	4249.716269873209	1
0	12858	4250.867687020895	0
0	12885	4252.685433874054	1
0	12888	4253.666843960161	0
0	12901	4255.833847872723	1
0	12907	4256.749363115151	0
0	12945	4273.194760922334	1
0	12947	4279.410495275432	2
0	12948	4279.646592495803	1
0	12954	4281.127404152198	0
0	12961	4282.658485105397	1
0	12965	4284.786566931392	0
0	12993	4291.381828575313	1
0	12995	4291.818318763809	2
0	12999	4292.901644603888	3
0	13004	4297.601690193655	2
0	13009	4299.077507238545	1
0	13015	4300.351931834588	0
0	13024	4300.67166804111	1
0	13031	4308.317587704535	0
0	13047	4312.809108984716	1
0	13049	4313.747295820603	2
0	13050	4315.543439231878	1
0	13057	4316.908993068793	2
0	13058	4316.980692187545	1
0	13066	4320.152003904629	0
0	13080	4324.654203609743	1
0	13084	4327.645856242106	2
0	13085	4328.372560401982	1
0	13090	4328.878058224253	0
0	13096	4329.227022116995	1
0	13098	4329.492701246235	0
0	13107	4330.107545602243	1
0	13109	4330.557610155336	0
0	13122	4332.252883408567	1
0	13124	4332.975891447266	0
0	13147	4341.975971359936	1
0	13148	4342.613675407631	0
0	13160	4348.138697040259	1
0	13161	4350.968691054353	0
0	13177	4354.947578504006	1
0	13178	4356.082980426742	0
0	13185	4357.548087863136	1
0	13189	4360.811242388562	2
0	13191	4360.959073115952	3
0	13194	4361.702735496957	2
0	13202	4365.277633795614	1
0	13217	4368.978749039996	0
0	13254	4376.948053932851	1
0	13255	4377.019182902697	0
0	13282	4384.270011053661	1
0	13287	4387.1460425183	2
0	13291	4387.523364274894	3
0	13292	4390.736953989052	2
0	13298	4393.623920554175	1
0	13307	4394.760437825356	2
0	13308	4395.031160201881	1
0	13313	4396.272193892421	0
0	13337	4405.553458273728	1
0	13338	4406.073667934122	0
0	13344	4406.510989397418	1
0	13354	4409.842675078751	0
0	13382	4419.135843653118	1
0	13389	4425.179683338644	0
0	13401	4427.429752732516	1
0	13404	4429.687062862926	2
0	13406	4430.088441487443	1
0	13411	4430.363557295043	0
0	13417	4430.412389108958	1
0	13421	4439.904338187843	2
0	13423	4442.375003132096	3
0	13426	4444.254096333449	2
0	13431	4445.425312884889	1
0	13439	4447.675484025269	2
0	13446	4451.114321662187	1
0	13452	4452.86323740691	0
0	13482	4459.382423930997	1
0	13488	4462.907301746822	2
0	13493	4463.904937805621	1
0	13499	4464.397598659143	2
0	13500	4464.573488600038	1
0	13506	4464.914483734723	2
0	13507	4465.090216681264	1
0	13512	4465.124064267544	0
0	13518	4465.257265137748	1
0	13520	4465.966229038156	0
0	13529	4469.023648319392	1
0	13533	4470.976477783477	2
0	13537	4472.965801721637	3
0	13538	4473.436970833568	2
0	13543	4474.27690399389	1
0	13552	4478.324311018162	0
0	13560	4479.06867514408	1
0	13563	4481.347993770818	0
0	13571	4482.481944222598	1
0	13572	4483.797918519644	0
0	13579	4485.833211822859	1
0	13584	4493.966089850391	0
0	13622	4504.828263367529	1
0	13623	4504.833486020755	0
0	13638	4513.916473217996	1
0	13639	4515.417117661916	0
0	13652	4521.259354419136	1
0	13654	4521.654523774954	2
0	13660	4526.154552956138	1
0	13667	4527.18910931686	0
0	13676	4527.426978634509	1
0	13682	4529.657708552545	2
0	13683	4530.119731258599	1
0	13689	4530.41356774765	2
0	13693	4532.332576194284	1
0	13700	4532.668106423901	0
0	13711	4533.077000185174	1
0	13713	4535.956814829894	0
0	13735	4541.663716248398	1
0	13738	4542.95158369649	0
0	13744	4543.112574212355	1
0	13747	4543.329547845104	2
0	13749	4543.334006336803	3
0	13751	4543.524464358751	4
0	13756	4545.693507095491	3
0	13762	4545.934362916666	4
0	13763	4546.913735101176	3
0	13768	4547.057724125701	2
0	13774	4549.576248205836	1
0	13780	4549.735434260689	2
0	13782	4550.566898269329	3
0	13783	4552.410292955421	2
0	13791	4556.059563706118	1
0	13796	4558.244951009729	0
0	13802	4560.23161605694	1
0	13805	4562.991036372951	0
0	13817	4563.85843530022	1
0	13818	4563.990252491862	0
0	13831	4564.475623769319	1
0	13832	4565.5204558178	0
0	13843	4570.197013757214	1
0	13850	4573.635279969141	2
0	13851	4575.329793918889	1
0	13856	4576.362938490232	0
0	13863	4577.69456089033	1
0	13865	4578.777846895927	0
0	13913	4601.254076379473	1
0	13914	4601.374747090711	0
0	13927	4606.318934405698	1
0	13930	4610.592795910419	0
0	13949	4616.061672680499	1
0	13953	4616.827176004043	2
0	13954	4617.968017136396	1
0	13959	4618.626277238388	0
0	13992	4637.307017342316	1
0	13993	4637.76911737284	0
0	14007	4644.400549633703	1
0	14009	4648.028963162294	2
0	14012	4651.954994653921	1
0	14018	4652.246200951508	2
0	14020	4652.728642577919	3
0	14022	4653.737470744122	4
0	14028	4654.768911211892	3
0	14035	4655.664876779429	4
0	14036	4658.939937502263	3
0	14042	4659.658503648613	4
0	14044	4660.749162979384	3
0	14049	4660.892883712864	2
0	14058	4663.553040697449	3
0	14059	4664.089347746556	2
0	14066	4665.042204143314	3
0	14067	4666.830727337373	2
0	14074	4668.987420826629	1
0	14079	4668.993265899179	0
0	14088	4670.637129581663	1
0	14089	4670.931128059008	0
0	14104	4674.587724677974	1
0	14105	4678.597145025298	0
0	14131	4693.302330005289	1
0	14133	4693.914920324663	2
0	14137	4695.707347575173	3
0	14138	4696.340144502745	2
0	14146	4698.91901478463	3
0	14147	4699.24244360084	2
0	14154	4701.894847746459	3
0	14155	4702.101782254501	2
0	14164	4703.888911574856	1
0	14170	4704.016712356323	2
0	14172	4705.43684611828	1
0	14178	4706.924074714394	0
0	14184	4707.641177258567	1
0	14185	4708.206189844574	0
0	14208	4713.50614601172	1
0	14211	4714.215470123065	0
0	14218	4715.065480730108	1
0	14221	4716.283591848565	0
0	14233	4719.80123056052	1
0	14234	4720.71130495256	0
0	14260	4725.666820389879	1
0	14263	4727.794436582714	0
0	14279	4734.648740922039	1
0	14281	4734.98980620532	2
0	14282	4736.591495006891	1
0	14287	4737.838033620095	0
0	14293	4737.921773525886	1
0	14294	4739.303794937468	0
0	14319	4744.994650436155	1
0	14321	4745.218207283504	2
0	14322	4746.913052726923	1
0	14329	4749.667064918644	2
0	14331	4750.848613192261	1
0	14337	4751.694068614276	0
0	14369	4762.499901747238	1
0	14372	4766.533927480577	0
0	14381	4770.995225322379	1
0	14383	4772.684236633901	0
0	14402	4776.720300937633	1
0	14405	4781.041721978342	0
0	14416	4781.458450603771	1
0	14417	4782.954875813024	0
0	14438	4790.557120152109	1
0	14441	4791.008986476759	0
0	14448	4792.463824157968	1
0	14451	4793.422014989102	0
0	14459	4795.279812629903	1
0	14460	4797.001470100874	0
0	14485	4806.144748162866	1
0	14489	4809.494768849904	0
0	14505	4811.043845921003	1
0	14506	4812.100146372926	0
0	14525	4813.907991899839	1
0	14532	4816.596686400666	2
0	14534	4819.200289950857	1
0	14539	4819.863440180874	0
0	14557	4821.291105358262	1
0	14560	4822.870400168064	0
0	14569	4824.713628607661	1
0	14574	4828.409385803368	2
0	14577	4829.27492130659	1
0	14583	4829.559733333234	2
0	14584	4829.574635738063	1
0	14589	4830.124670028545	0
0	14602	4834.723732523297	1
0	14609	4842.201550913372	2
0	14611	4842.25441153817	3
0	14612	4843.563937487381	2
0	14620	4848.626794118216	3
0	14621	4852.163622358003	2
0	14631	4854.676023987456	1
0	14639	4855.306743791631	2
0	14640	4857.491842570668	1
0	14646	4859.734652889949	0
0	14658	4862.00780469446	1
0	14662	4864.885900918432	0
0	14670	4868.972591810403	1
0	14671	4869.686374894036	0
0	14697	4880.166126814336	1
0	14698	4882.139969653112	0
0	14710	4885.436965255465	1
0	14712	4885.499415741742	2
0	14713	4886.790392841908	1
0	14718	4887.921182348101	0
0	14730	4890.883739955919	1
0	14731	4891.543729828983	0
0	14739	4893.788306565175	1
0	14740	4895.402894144498	0
0	14749	4897.991929392653	1
0	14754	4906.836993874622	2
0	14755	4908.348101463353	1
0	14760	4908.548172981358	0
0	14766	4908.659673536087	1
0	14767	4908.938885176387	0
0	14778	4913.06446669195	1
0	14780	4913.306127976758	2
0	14782	4914.624193038541	3
0	14784	4916.400096555827	4
0	14787	4918.280814519818	3
0	14794	4919.491204919767	4
0	14796	4920.765046804025	5
0	14800	4924.366685084277	4
0	14806	4924.817016961994	5
0	14811	4926.161175821078	6
0	14813	4926.545450450437	7
0	14815	4927.169437574639	6
0	14821	4927.302175200286	7
0	14823	4928.4739402105	8
0	14829	4930.2102500156	7
0	14834	4930.814064974235	6
0	14841	4933.317359561815	5
0	14847	4934.076169675972	4
0	14853	4935.325753889528	5
0	14854	4935.708544712479	4
0	14862	4939.509361400491	3
0	14867	4939.816933041099	2
0	14871	4943.39820481801	3
0	14876	4943.865627151263	4
0	14879	4945.434984538411	3
0	14884	4945.604038894899	2
0	14890	4947.007672828263	1
0	14898	4950.585621742285	0
0	14905	4952.375124366193	1
0	14907	4955.198124985501	0
0	14918	4958.195286296566	1
0	14922	4961.299546026637	2
0	14924	4961.431615857825	3
0	14926	4961.552124017834	4
0	14929	4966.976794500439	3
0	14935	4967.251967540552	4
0	14937	4971.037489261613	3
0	14945	4977.29913809119	2
0	14953	4980.384084058866	3
0	14956	4982.891740893948	2
0	14962	4983.577486650178	3
0	14964	4983.620528878502	4
0	14965	4985.391306782121	3
0	14973	4986.180676141368	2
0	14978	4986.362224192981	1
0	14983	4987.152983206221	0
0	15018	4997.580956518102	1
0	15019	4999.180612865044	0
0	15025	5000.609768179436	1
0	15028	5008.003208584085	2
0	15031	5009.780625114384	1
0	15038	5010.506354069436	2
0	15046	5019.874074733166	3
0	15047	5020.976205468217	2
0	15055	5023.617423468534	3
0	15059	5028.197252653034	2
0	15065	5028.376522708197	3
0	15067	5029.505654302443	2
0	15074	5031.971067370082	1
0	15080	5032.422416512277	2
0	15081	5033.278041211112	1
0	15089	5035.858509767862	0
0	15130	5050.572464147855	1
0	15131	5051.902942707714	0
0	15145	5060.332634680594	1
0	15146	5060.334559984427	0
0	15175	5075.551877779033	1
0	15176	5076.713269840612	0
0	15182	5076.727989553109	1
0	15184	5079.288762217101	0
0	15190	5079.35770109491	1
0	15197	5089.379557226766	2
0	15200	5092.203866709529	1
0	15206	5094.320598173617	0
0	15214	5096.049515628376	1
0	15217	5096.931254241554	0
0	15240	5110.522519260632	1
0	15246	5113.857931931716	0
0	15263	5120.59663476597	1
0	15266	5122.803269235656	0
0	15273	5124.82849518553	1
0	15275	5128.024666644155	2
0	15277	5128.430398628506	3
0	15279	5129.354345703413	4
0	15281	5129.933043274487	5
0	15282	5130.259189776136	4
0	15289	5131.424007592717	3
0	15294	5132.351264091042	2
0	15303	5134.126808734836	3
0	15306	5134.328102772998	4
0	15308	5134.635319765344	3
0	15315	5136.814362792284	2
0	15322	5138.026967080831	1
0	15331	5139.607552209291	2
0	15336	5141.768568870726	3
0	15338	5142.739496773977	4
0	15340	5145.47149466711	5
0	15344	5147.785097384837	6
0	15347	5151.12381996101	5
0	15353	5151.664542373793	6
0	15354	5151.668874737716	5
0	15359	5152.249607815299	4
0	15364	5153.631607467671	3
0	15372	5154.853953057592	4
0	15379	5159.339996238985	5
0	15380	5163.837390067906	4
0	15385	5163.9245992029	3
0	15391	5164.457774001849	2
0	15396	5164.908069230072	1
0	15401	5165.481911511767	0
0	15407	5166.365407994306	1
0	15408	5167.412723596648	0
0	15417	5168.9440471087	1
0	15420	5171.372612821579	2
0	15421	5171.812409992413	1
0	15430	5175.359022169849	2
0	15431	5178.116993558218	1
0	15439	5178.672994041364	2
0	15440	5178.752564964353	1
0	15446	5179.296758387675	2
0	15448	5181.686008983847	3
0	15450	5182.718981309387	4
0	15454	5184.105048077383	5
0	15455	5184.200439316188	4
0	15460	5184.472003575763	3
0	15466	5184.816306695024	4
0	15469	5186.880809700692	3
0	15475	5187.5092200334	4
0	15477	5188.693865271008	3
0	15486	5189.615511882093	4
0	15487	5190.516530598716	3
0	15493	5191.145948161201	2
0	15500	5192.031248544828	3
0	15506	5194.524618365911	4
0	15508	5197.701805630337	5
0	15509	5201.569492834737	4
0	15516	5204.984562498474	3
0	15524	5207.148037987378	4
0	15525	5208.166117590185	3
0	15529	5208.878487937217	4
0	15534	5210.609007893481	5
0	15535	5211.156050829563	4
0	15540	5211.241170693128	3
0	15545	5212.516457369218	2
0	15553	5217.57809170889	1
0	15559	5217.783732806264	2
0	15564	5218.449488370117	1
0	15571	5221.712175333648	0
0	15578	5222.497109496709	1
0	15586	5225.674433985005	2
0	15588	5227.277536774076	3
0	15589	5228.426986736996	2
0	15595	5230.268906472273	3
0	15597	5232.553312819323	2
0	15602	5236.01676285374	1
0	15609	5236.754052689825	2
0	15611	5237.466132875028	3
0	15612	5237.962108891956	2
0	15618	5238.324086940828	3
0	15619	5238.425021950341	2
0	15624	5239.675772324936	1
0	15629	5239.700493607444	0
0	15640	5241.68900609395	1
0	15644	5245.85833569492	0
0	15665	5248.614338566951	1
0	15667	5248.655374269593	2
0	15669	5248.902407244568	1
0	15675	5249.801448042973	0
0	15688	5253.369540578049	1
0	15690	5253.624934632526	2
0	15694	5255.104536638207	1
0	15699	5256.195714108264	0
0	15705	5256.482127636012	1
0	15707	5257.520046580039	0
0	15713	5258.512862922485	1
0	15714	5258.711146998006	0
0	15741	5266.428093721208	1
0	15742	5266.777898876742	0
0	15753	5270.278016270164	1
0	15759	5270.97511767448	2
0	15765	5274.296116547254	3
0	15767	5275.074099448173	4
0	15769	5275.26588608118	5
0	15774	5280.869488787481	6
0	15776	5281.538716174414	7
0	15777	5281.866213805099	6
0	15783	5281.91034552123	7
0	15784	5282.404853784497	6
0	15789	5282.809995640552	5
0	15799	5286.163121506739	4
0	15809	5288.401288918314	5
0	15810	5288.759809190468	4
0	15820	5292.960207032856	3
0	15826	5293.246189026857	4
0	15830	5294.808571505222	3
0	15836	5295.308174559923	4
0	15842	5298.896273357205	5
0	15843	5299.085283962929	4
0	15849	5299.903996876208	5
0	15851	5300.671621347597	4
0	15859	5302.96280507433	5
0	15862	5304.279312815546	4
0	15870	5306.351774482011	5
0	15871	5306.460773074769	4
0	15879	5310.075817630508	3
0	15884	5310.382198625329	2
0	15890	5311.805938073983	3
0	15891	5311.932240503264	2
0	15896	5312.343960962838	1
0	15902	5317.878499873078	0
0	15920	5326.413130784703	1
0	15923	5328.466213829867	0
0	15942	5330.585908188644	1
0	15945	5331.969362651387	0
0	15952	5335.304750790402	1
0	15953	5336.519967868127	0
0	15979	5341.248085004011	1
0	15982	5342.411965449743	0
0	16001	5349.447925529887	1
0	16008	5353.390894899848	0
0	16027	5354.950442661484	1
0	16029	5356.189030023803	0
0	16040	5357.175258798529	1
0	16043	5359.128470259022	0
0	16058	5362.40439201196	1
0	16061	5363.200645701287	0
0	16068	5364.217419948499	1
0	16069	5364.857251237394	0
0	16087	5369.836069520432	1
0	16089	5372.428098067126	2
0	16090	5373.203932215443	1
0	16096	5373.511021144181	2
0	16098	5373.660458815934	3
0	16100	5374.195474165603	4
0	16101	5374.770337500942	3
0	16111	5377.285563291383	4
0	16112	5377.639503527915	3
0	16119	5378.771187912838	4
0	16120	5381.759065534252	3
0	16125	5382.032074840591	2
0	16134	5385.613792973899	1
0	16140	5387.010842607493	0
0	16146	5387.678652999658	1
0	16151	5389.276419394945	2
0	16152	5390.434505538269	1
0	16157	5390.48869915022	0
0	16179	5404.76107638172	1
0	16185	5405.960966267998	2
0	16186	5407.588121411694	1
0	16194	5408.481197441457	2
0	16195	5409.933459811181	1
0	16204	5412.711072587267	2
0	16206	5413.686674741171	3
0	16208	5414.60605463355	2
0	16214	5416.222178794927	1
0	16220	5417.444064925329	2
0	16221	5417.629209628288	1
0	16227	5418.365003160439	0
0	16268	5427.086958416509	1
0	16271	5428.413525088751	2
0	16272	5428.575508484024	1
0	16279	5431.24330146225	0
0	16303	5439.454857160403	1
0	16307	5440.727107963329	0
0	16327	5446.669779522689	1
0	16331	5447.657654771696	2
0	16332	5448.290090303608	1
0	16338	5449.515066302635	0
0	16346	5450.991618238848	1
0	16348	5455.768481889547	0
0	16366	5462.334835469367	1
0	16367	5463.307363216857	0
0	16397	5471.174057931051	1
0	16398	5471.593535864302	0
0	16405	5473.145960721869	1
0	16408	5473.85619324434	2
0	16409	5474.126977939281	1
0	16415	5475.714125301924	0
0	16422	5477.249894328495	1
0	16423	5477.397857381388	0
0	16432	5481.475841814433	1
0	16433	5484.863711613606	0
0	16456	5488.341588224775	1
0	16458	5489.496246534718	2
0	16459	5491.326446074468	1
0	16464	5491.368147760978	0
0	16473	5493.171224382101	1
0	16475	5494.009607698327	0
0	16486	5495.299692342801	1
0	16488	5499.100262991117	0
0	16495	5500.180533049153	1
0	16496	5500.957979993372	0
0	16516	5504.47860192715	1
0	16519	5505.341013099202	2
0	16520	5509.276835658279	1
0	16525	5509.748510871597	0
0	16533	5511.617381491353	1
0	16536	5513.14247166102	2
0	16538	5514.227944027834	3
0	16539	5514.964117153469	2
0	16544	5515.395090692322	1
0	16549	5516.69036210327	0
0	16569	5522.131279072935	1
0	16571	5522.227074065898	2
0	16576	5526.893689777919	1
0	16582	5529.771938802688	0
0	16588	5530.046279306813	1
0	16589	5531.101911876871	0
0	16595	5531.388210185245	1
0	16596	5533.664515734648	0
0	16603	5534.348273125049	1
0	16605	5534.756988225315	0
0	16618	5537.551843217226	1
0	16621	5538.354459855437	2
0	16623	5539.175196654019	3
0	16625	5540.371296385983	2
0	16633	5543.064524490877	3
0	16634	5544.577644103059	2
0	16641	5545.300157135455	3
0	16642	5547.137014990067	2
0	16647	5547.684501764805	1
0	16653	5548.449229611148	0
0	16671	5551.385973707566	1
0	16674	5551.776044275437	0
0	16682	5553.886944409427	1
0	16683	5554.256025102407	0
0	16710	5566.601021341336	1
0	16711	5568.730589717949	0
0	16728	5573.504749519436	1
0	16730	5574.07569740988	0
0	16736	5574.589191428224	1
0	16738	5575.356240663867	2
0	16742	5578.71000769564	3
0	16745	5579.549604021413	4
0	16746	5579.565140212359	3
0	16752	5579.647295072139	4
0	16755	5581.982908795956	3
0	16763	5583.682556368299	2
0	16768	5584.157896153116	1
0	16775	5588.150739750805	0
0	16788	5590.892672084382	1
0	16790	5593.118109007864	2
0	16794	5595.472740405892	3
0	16796	5596.205729689259	4
0	16798	5599.863038020921	5
0	16800	5599.949986019568	6
0	16802	5600.077019181097	7
0	16803	5600.820458044296	6
0	16808	5601.601120261628	5
0	16815	5604.479228759141	4
0	16821	5605.118138195933	3
0	16827	5606.15911681198	4
0	16828	5608.047698180029	3
0	16833	5608.999287248899	2
0	16841	5613.058670717591	1
0	16848	5613.529914201226	0
0	16876	5623.168012646802	1
0	16879	5625.732729038151	0
0	16889	5627.640721648138	1
0	16893	5629.030139466945	2
0	16895	5629.175100465068	3
0	16897	5630.335228280384	4
0	16899	5635.16179304335	3
0	16904	5635.349927115589	2
0	16911	5637.809999179339	1
0	16922	5642.247979748242	2
0	16926	5642.526238262446	3
0	16932	5648.934711280685	4
0	16933	5650.054887035983	3
0	16940	5651.100330330171	2
0	16946	5651.34946093341	3
0	16948	5653.46572661023	2
0	16956	5654.291490178798	1
0	16961	5654.843984856641	0
0	16990	5657.028565395879	1
0	16995	5659.433947427496	2
0	16996	5659.786279273572	1
0	17001	5659.875558324434	0
0	17007	5659.961895239877	1
0	17011	5660.686272195397	2
0	17013	5661.131140798149	3
0	17016	5662.708627492024	4
0	17022	5668.00472182006	3
0	17028	5670.139549692142	2
0	17034	5670.658122776418	1
0	17039	5671.082517090057	0
0	17046	5673.112826129568	1
0	17048	5673.669040479533	2
0	17049	5673.885492477179	1
0	17056	5675.151457864054	0
0	17067	5679.904978952243	1
0	17069	5681.381978430288	0
0	17075	5681.542610824213	1
0	17077	5682.546182219367	2
0	17078	5682.715792481016	1
0	17083	5682.936467871212	0
0	17094	5685.741516184797	1
0	17095	5687.005930024532	0
0	17115	5691.17463630107	1
0	17117	5693.578259840448	2
0	17119	5694.117239086955	3
0	17125	5698.454003706356	4
0	17133	5699.390899321743	5
0	17134	5699.790785518085	4
0	17140	5701.118516317927	3
0	17149	5703.394412783874	4
0	17151	5704.768524239694	3
0	17157	5706.546019580495	2
0	17163	5706.605836385686	3
0	17165	5707.450745198582	4
0	17167	5708.827700080283	3
0	17172	5709.453549712435	2
0	17179	5710.502851566294	1
0	17186	5711.963882116109	2
0	17188	5712.085470171716	3
0	17190	5712.205795766109	4
0	17194	5714.260115845026	3
0	17200	5716.68562095203	4
0	17201	5717.034508157882	3
0	17210	5717.580932298102	4
0	17213	5721.038732356668	5
0	17214	5721.837901190553	4
0	17222	5724.892394176008	3
0	17233	5730.690917580442	2
0	17239	5731.508343194992	1
0	17245	5731.703757652091	2
0	17247	5735.428772884785	1
0	17254	5736.842778317864	0
0	17268	5738.5250893188	1
0	17272	5744.379972971706	0
0	17278	5744.504373260908	1
0	17280	5746.050918707666	2
0	17283	5746.631620729614	3
0	17285	5747.656659123191	4
0	17286	5748.067803518856	3
0	17293	5750.653180013205	4
0	17295	5750.997224733752	5
0	17296	5752.953917964723	4
0	17301	5758.614817914608	3
0	17307	5759.806817788576	4
0	17308	5760.341267469294	3
0	17313	5761.031498257305	2
0	17318	5761.320437886107	1
0	17327	5763.976516019647	0
0	17333	5764.459491326135	1
0	17334	5764.618730201358	0
0	17338	5764.932210451144	1
0	17342	5765.704957409424	2
0	17346	5768.013889488359	3
0	17348	5774.698362863394	2
0	17353	5774.953333311643	1
0	17358	5777.910434675359	0
0	17368	5779.312674379409	1
0	17369	5779.840988253268	0
0	17376	5783.332341209651	1
0	17381	5787.905345486929	0
[...]
4	79176	26183.827817939177	5071.9576196139
4	79227	26204.722761142927	5089.2217683513
4	79232	26204.957554718192	5089.236402319
4	79237	26205.126781399763	5077.8871095627
4	79243	26206.509255298971	5074.2109579692
4	79250	26208.227682841387	5072.9841937455
4	79294	26226.679023181856	5088.6387697302
4	79303	26228.210790904359	5089.0939482451
4	79409	26257.429982176268	5112.2471817421
4	79431	26263.559038810786	5117.3022711482
4	79446	26269.419736818539	5118.4013871308
4	79461	26271.297504572932	5114.1972427936
4	79466	26272.029104400532	5112.1719884176
4	79471	26272.381912109527	5111.9758245734
4	79482	26275.885721135033	5112.419345687
4	79520	26283.105878678428	5103.9314364623
4	79525	26283.591829117317	5099.2991260548
4	79533	26286.959214592679	5096.5402559741
4	79548	26295.550466260929	5093.4210613837
4	79555	26296.256921722683	5083.8172977252
4	79564	26303.307959263315	5090.8035484308
4	79627	26319.470866551447	5093.4885583953
4	79659	26325.065708125212	5092.0700837056
4	79687	26331.998445742653	5098.7194888379
4	79699	26337.503560249476	5103.2440838791
4	79707	26339.832045795839	5097.5676447825
4	79712	26340.153558867248	5096.2412230135
4	79717	26340.653318156696	5096.2523599006
4	79737	26348.24433460073	5101.8398635179
4	79788	26358.22046124574	5092.2573588449
4	79793	26359.80912781496	5082.4339836893
4	79799	26360.330723660057	5081.7963421061
4	79807	26362.334063506189	5081.8734544306
4	79817	26369.421322968973	5078.6464256987
4	79828	26370.408483305145	5075.0893814503
4	79833	26372.139838661315	5075.4713129177
4	79843	26374.8915636725	5076.4367569276
4	79854	26376.424584269142	5063.033937482
4	79859	26379.70283003198	5053.1762290176
4	79868	26381.26357516414	5047.7148543895
4	79890	26387.027590714284	5046.9291582974
4	79910	26389.790271610758	5044.2756389832
4	79921	26392.019446077901	5043.8385071736
4	79928	26394.679183616924	5043.1640988724
4	79941	26396.38954309395	5035.9401269856
4	79958	26402.84397172962	5035.5001330606
4	79970	26404.934520873339	5034.5301583135
4	79992	26413.879770743766	5040.5107236104
4	79997	26419.339973920334	5045.9197520741
4	80004	26420.571119724942	5043.9130555819
4	80019	26434.968527703641	5048.5770594445
4	80097	26455.611488428414	5068.0782450711
4	80108	26458.316557307729	5065.598964451
4	80127	26463.75701860397	5067.2794493201
4	80187	26481.960129199916	5079.0290742669
4	80214	26494.489387118526	5089.2365922746
4	80302	26518.896791424333	5105.6279730112
4	80307	26521.568894488021	5103.418559813
4	80314	26524.962377836779	5096.7739870598
4	80323	26526.752787100855	5096.95011527
4	80370	26557.452846858473	5109.5390551134
4	80458	26585.014225929388	5128.0491009552
4	80544	26612.699557851933	5148.9357171647
4	80553	26617.170542182644	5152.023941495
4	80574	26623.784119844404	5151.1648089092
4	80587	26625.320137128943	5136.4570904845
4	80606	26634.718195158367	5141.2061462412
4	80667	26650.31849702382	5156.6661741307
4	80676	26656.05707968418	5161.54498974
4	80683	26657.216183471351	5162.0570995303
4	80701	26661.103966842751	5155.1444902013
4	80810	26692.041458428412	5183.8841360639
4	80826	26701.558149275264	5185.6190151657
4	80922	26730.62003974702	5209.9751781682
4	80931	26732.666963426868	5207.0815108283
4	80950	26736.398733136377	5210.4684709682
4	80957	26743.769987582978	5205.1147428991
4	80963	26745.151843122146	5201.4654543391
4	80968	26745.429516995148	5197.4859329645
4	80975	26749.218121108088	5183.7846974434
4	80989	26753.980168734767	5185.6478497533
4	81014	26761.706645700007	5192.4409306118
4	81032	26768.853796049418	5199.4283307366
4	81062	26773.945372091057	5201.9808025467
4	81291	26846.059537978188	5270.411223829
4	81296	26847.167173697605	5268.4076424938
4	81313	26858.425251015981	5261.5764678371
4	81374	26879.012995841031	5279.8907431756
4	81385	26882.174238925565	5279.2938011914
4	81398	26884.122256893722	5280.2817400032
4	81413	26893.109233741581	5283.8989132662
4	81424	26896.203742359647	5281.0412187827
4	81449	26901.955932957325	5280.1810995316
4	81464	26908.271593183714	5283.9444129132
4	81516	26925.38011314842	5295.1035761516
4	81525	26928.015861741197	5296.4134465284
4	81534	26933.430143807087	5275.2182764755
4	81551	26943.323087136792	5270.6657302095
4	81591	26960.970115413315	5274.270652323
4	81598	26963.779717539584	5272.8995823426
4	81619	26967.870554875117	5269.9760517884
4	81633	26973.486391935771	5269.6725553572
4	81640	26974.682391709129	5266.030099269
4	81645	26976.339481190033	5265.2177685807
4	81660	26989.018055141355	5272.4117859503
4	81686	26996.483447882339	5275.4699633819
4	81691	26998.280799988965	5275.6648573814
4	81698	26999.296422825422	5274.7221587193
4	81715	27006.387386952646	5277.8726999903
4	81792	27030.533790916098	5295.2127613488
4	81825	27040.444514625598	5302.0236589345
4	81832	27045.400250787447	5301.4999910578
4	81839	27049.120655051883	5300.5637845131
4	81846	27051.262593830343	5294.0336157727
4	81862	27053.798672274455	5292.8729443054
4	81931	27067.077551461903	5303.8020874967
4	81937	27068.598621314785	5301.5158057653
4	81942	27069.735028430686	5300.5261037786
4	81951	27071.994463619569	5298.0145972778
4	81961	27074.807486638001	5296.1073672546
4	81973	27077.777825214351	5297.1027307736
4	81982	27081.95959280679	5300.7925489134
4	81987	27086.071615452543	5303.8316003815
4	81992	27086.692318128298	5300.3422708345
4	82010	27101.545485136954	5312.2171986397
4	82026	27106.331589260417	5303.5092270355
4	82037	27110.289981700398	5306.0051732156
4	82073	27118.818763048367	5301.1906703597
4	82080	27122.559810739836	5284.6464206215
4	82096	27126.817672856985	5279.3693114892
4	82125	27135.697065887416	5275.6286098861
4	82150	27140.458439889566	5278.5816755949
4	82161	27141.917042221956	5278.6138410041
4	82432	27239.529099387265	5373.5160444053
4	82495	27257.670869491894	5391.152167762
4	82514	27259.593347454348	5392.8256025418
4	82522	27263.049402423012	5391.5323290268
4	82536	27268.330722427839	5384.9210210219
4	82548	27275.009074705502	5387.7134386718
4	82564	27278.694112294484	5390.8391582978
4	82616	27293.632556482602	5404.3147528381
4	82636	27299.16513233281	5402.2936772119
4	82983	27389.168100132738	5488.3014009456
4	82990	27389.537968772013	5468.0557718837
4	82997	27391.014293606751	5469.2829961368
4	83008	27392.589901345802	5464.0982977387
4	83013	27392.965553684314	5462.35037963
4	83018	27396.081265109973	5462.7801983617
4	83026	27398.536225245224	5462.1484888363
4	83041	27403.460803151371	5459.1678906044
4	83046	27405.674600153987	5458.0129480985
4	83059	27419.306325292882	5466.2021482742
4	83084	27426.03482773823	5471.7124373849
4	83127	27431.83635999632	5471.0191903392
4	83142	27436.291159981735	5459.1252752937
4	83259	27466.264951051122	5482.2220001307
4	83264	27466.428568927605	5481.0310472269
4	83269	27466.531840218561	5476.3637123533
4	83274	27466.779428646649	5467.661325404
4	83280	27467.647436919274	5463.2723950201
4	83285	27470.024137140975	5460.0550834154
4	83290	27471.613039629267	5454.7579055722
4	83295	27473.247228476036	5448.511849764
4	83302	27476.81239753742	5451.0212776057
4	83332	27482.335468568512	5450.9495368315
4	83340	27482.732013471383	5447.7371925763
4	83443	27508.378222326969	5471.5284601206
4	83451	27509.601293608179	5463.3857889972
4	83458	27510.876113826353	5446.1412146148
4	83463	27514.696783230848	5446.5722912026
4	83470	27517.814387420911	5448.5205171137
4	83481	27523.608813793494	5449.4270772316
4	83549	27545.26674303712	5468.5557542566
4	83554	27545.978647107763	5465.905658961
4	83563	27549.229628693011	5468.2735524289
4	83574	27553.029391353263	5466.0552860422
4	83584	27556.57563855159	5463.2020662472
4	83598	27559.045706686524	5456.2987491552
4	83603	27559.435692175003	5456.3414639472
4	83618	27566.561445430957	5461.8679495103
4	83714	27597.740662506766	5493.0400235444
4	83720	27599.089254190655	5478.3615475815
4	83728	27603.552752476623	5478.6121998119
4	83735	27608.623740177136	5481.6930298868
4	83963	27682.977638724677	5541.5329750101
4	84000	27692.075401008904	5547.8471130807
4	84010	27692.342889118885	5544.9780944745
4	84021	27698.383516616287	5540.7734760098
4	84061	27709.091031236936	5540.7663420427
4	84069	27710.49824137672	5525.4267052831
4	84174	27741.976642106725	5554.1718613456
4	84185	27744.911235411515	5549.520057688
4	84190	27745.018531327852	5548.7896030749
4	84199	27748.45225482612	5550.6110274655
4	84252	27767.15360356971	5562.650477559
4	84316	27784.270418094785	5578.5093657147
4	84332	27786.121968361669	5580.234471472
4	84337	27786.859495816621	5576.5701162427
4	84343	27788.892673832939	5566.7894079023
4	84350	27789.783673909263	5565.7785311938
4	84355	27791.933472993229	5563.9562729427
4	84364	27799.882183937886	5569.1317406139
4	84393	27810.710869360211	5577.3848527913
4	84398	27813.081707892221	5578.2529930421
4	84403	27814.334943893473	5574.0490041747
4	84420	27819.476910654859	5579.1031732747
4	84526	27851.873370945757	5603.8589034257
4	84550	27861.537094057384	5609.7473423087
4	84559	27864.81777813691	5612.3473087823
4	84591	27874.419521478567	5617.4027581226
4	84602	27880.252904452268	5622.1355941013
4	84623	27887.979230426407	5627.2089251556
4	84630	27892.613925439697	5623.2942628005
4	84653	27897.535379587729	5614.341326953
4	84694	27915.472063242164	5630.4121620665
4	84742	27933.401932799213	5640.022612927
4	84771	27941.507159486454	5648.0110796102
4	84787	27947.974644668648	5653.4644156545
4	84821	27958.14470527869	5661.6307268589
4	84859	27972.238783394309	5672.1607255746
4	84895	27978.017589711659	5672.2013818083
4	84918	27985.982388988519	5675.2886504308
4	84925	27987.536866771415	5673.3444918294
4	84965	28003.567116691436	5683.8997477469
4	84986	28012.931668219137	5679.4673619033
4	85083	28055.348773577415	5721.1680753225
4	85093	28056.692501507157	5721.2877355145
4	85113	28069.305944396873	5728.5760787345
4	85174	28090.207819624613	5727.2752008609
4	85179	28092.850868020281	5725.2166931276
4	85186	28093.533579835684	5710.9614956584
4	85201	28101.181972231392	5717.8073466332
4	85266	28121.594397141663	5726.9729020438
4	85274	28122.868912050815	5727.9549536216
4	85280	28123.617357058926	5723.4448341253
4	85285	28124.527433413327	5720.3805645079
4	85290	28126.407559428475	5720.6305547721
4	85295	28126.934305255066	5718.7331035445
4	85300	28128.490003940925	5711.3942249009
4	85307	28131.654846231421	5710.6399507091
4	85318	28132.376977518249	5703.764929194
4	85323	28133.894398544427	5703.9532048022
4	85329	28138.148492999194	5707.2363234986
4	85334	28139.097957899593	5700.4868795415
4	85341	28141.570023954861	5700.762702538
4	85358	28146.884618853193	5702.5202724773
4	85387	28155.601204489638	5708.1022672747
4	85397	28158.082943772557	5710.0947219284
4	85402	28159.556400999616	5700.5962072368
4	85409	28165.243423139667	5705.4321351506
4	85418	28177.21074082918	5714.4561547887
4	85441	28186.098566908508	5717.659655143
4	85448	28188.70456035389	5716.7463487442
4	85477	28199.567013530692	5718.1801191985
4	85484	28201.604078397676	5719.0006764653
4	85491	28208.126297452559	5719.7427764075
4	85500	28215.460334571698	5720.2324550623
4	85875	28336.435550819916	5838.6335266818
4	85955	28360.98109093386	5860.0142787846
4	85974	28364.250201743957	5837.0748329859
4	85981	28367.26986041467	5837.1658788458
4	86000	28375.534925352574	5839.0118182242
4	86046	28382.850913198658	5842.688266215
4	86059	28386.040648935962	5843.0121934565
4	86071	28388.586205516991	5845.0330987207
4	86076	28394.598466401689	5850.0356484891
4	86081	28395.121115451782	5834.3526000915
4	86090	28402.872191194076	5841.9760969244
4	86099	28408.461845760669	5846.2166690607
4	86110	28410.665547265015	5837.4015100058
4	86116	28412.551101608541	5818.5590430455
4	86121	28413.213297756379	5804.9326201575
4	86130	28415.753078948656	5806.2816138779
4	86156	28420.087570204458	5810.4549023728
4	86162	28423.978053021149	5813.612811548
4	86169	28425.830626602127	5809.2542810841
4	86186	28431.946253316258	5809.77386529
4	86341	28470.291217461899	5844.6263136047
4	86349	28471.565175051608	5845.7127637625
4	86364	28476.039899097558	5847.1561119331
4	86369	28478.508490794217	5837.5128629619
4	86376	28480.503023447915	5835.5385793992
4	86387	28483.963465058032	5835.0034606462
4	86417	28498.076200120881	5846.3045977845
4	86425	28506.652373242414	5850.5877939626
4	86439	28511.775529570286	5845.1630094263
4	86563	28553.183326269922	5885.6979384157
4	86570	28554.977537982086	5880.6691929989
4	86609	28566.260598072034	5886.1450371705
4	86651	28577.853973693334	5895.5674440504
4	86656	28578.011567360904	5883.4040166605
4	86662	28579.455565928345	5884.563906851
4	86667	28581.763036762035	5886.4424673044
4	86674	28585.020527299606	5888.9564504058
4	86700	28597.700410526191	5897.4945311523
4	86848	28653.976162731143	5945.3308611057
4	86881	28663.684488595848	5946.2552737748
4	86895	28669.170545484116	5945.6847823308
4	86917	28674.311187321356	5950.5094818941
4	86923	28675.873933762592	5951.3375788315
4	86934	28679.355470743499	5936.5552531741
4	86939	28679.468162541933	5914.9613957324
4	86944	28681.860867610946	5917.1735834469
4	86955	28687.397974015426	5916.5405456431
4	87208	28782.946732276313	6005.0433173758
4	87221	28786.938626054572	6007.1781813406
4	87235	28790.024982634497	6010.0403629915
4	87266	28797.801382673363	6011.5981488364
4	87271	28798.064375517557	6006.3745386719
4	87276	28798.307129689081	6002.1552574399
4	87285	28800.278553326278	6002.9003904256
4	87391	28832.684635940069	6035.1648574293
4	87425	28839.194671250745	6036.8576583856
4	87432	28845.980612351964	6034.6967016875
4	87453	28851.592670285738	6036.0526772814
4	87470	28859.140711763046	6038.9478947408
4	87488	28862.641580142062	6041.3710775123
4	87495	28863.240804999752	6041.2150207734
4	87502	28864.678760666026	6032.1605849584
4	87517	28871.941676299346	6029.5004326265
4	87565	28888.799076959132	6041.4318336413
4	87570	28888.812748883323	6040.956974134
4	87575	28890.9679300262	6039.3880833743
4	87582	28892.906532977309	6037.3704125159
4	87603	28897.065208740318	6041.4703753059
4	87613	28899.87484032318	6032.4619667312
4	87618	28900.55806654438	6024.9031897637
4	87630	28908.152395868025	6029.9389129735
4	87644	28911.786183270305	6028.5679304659
4	87658	28916.864218173894	6031.0990642126
4	87677	28923.241691438282	6034.8845425679
4	87683	28925.491596585843	6026.3757165354
4	87696	28930.639760675981	6028.4838619505
4	87713	28936.498181358049	6027.5345575969
4	87720	28939.945549169339	6019.0187504012
4	87751	28951.778209514713	6020.0304018776
4	87759	28957.450688715922	6000.8282623835
4	87764	28957.823682210866	6000.9419084379
4	87777	28967.576848639991	6009.1607131449
4	87809	28976.44839644859	6017.816625713
4	87821	28984.848707605657	6014.7076768496
4	87843	28990.873300682555	6018.0475683303
4	87848	28991.342812632427	6011.4336230078
4	87856	28995.38507294412	6010.5982610178
4	87869	29001.903651578345	6002.0856792995
4	87930	29019.081969740168	6018.3090073423
4	87936	29019.63801275566	6017.6053072016
4	87941	29020.665618054093	6017.1081253106
4	87951	29024.717119579938	6017.4841327887
4	88005	29038.13318694461	6028.5434528925
4	88010	29038.152595207772	6022.3609545799
4	88020	29044.664431447025	6020.101383542
4	88025	29049.684381057257	6013.1918996014
4	88038	29055.475822521578	6014.0575840322
4	88058	29062.62446415877	6012.2774845237
4	88063	29063.063278939836	5997.9013111313
4	88068	29063.618130483149	5995.9220785861
4	88080	29066.213110488772	5994.7303152222
4	88179	29096.249803740161	6023.2268007433
4	88184	29097.797069248231	6018.4810586844
4	88189	29099.078400270518	6006.9045597378
4	88204	29108.039509895944	6006.0542044866
4	88253	29119.510876055359	6002.210456616
4	88262	29122.119215490303	5999.1058257725
4	88278	29125.062173360344	6000.4254254475
4	88327	29144.218773584816	6017.7280766575
4	88334	29146.440858239654	6019.2797634734
4	88359	29155.222541900598	6027.9229182775
4	88423	29178.48370870407	6046.6867845202
4	88436	29181.797345462025	6048.8517892307
4	88441	29182.872775482158	6049.6960773093
4	88446	29184.618761793677	6047.5861976045
4	88463	29190.862203287689	6053.3847820619
4	88522	29202.055311639817	6052.9370583951
4	88558	29212.296629127711	6057.89837903
4	88582	29221.184504605849	6047.6500862751
4	88791	29284.80206496911	6094.7760467106
4	88797	29285.580538667135	6089.8958921931
4	88803	29288.403608203851	6082.4289558929
4	88808	29291.29179261673	6082.9623001924
4	88827	29303.772961370167	6089.1066858548
4	88986	29345.340380620648	6130.2063917177
4	88992	29347.780661101303	6120.4000468417
4	88999	29349.663568888647	6103.9867720093
4	89004	29351.913113675215	6105.2543163587
4	89009	29354.475058413439	6106.8801491254
4	89016	29356.360979424821	6102.5076116018
4	89027	29361.110042328028	6102.302754639
4	89034	29362.834669169892	6095.461217302
4	89043	29365.489214177133	6095.9887161407
4	89063	29372.338882988071	6096.5327999064
4	89076	29375.092964372853	6098.4386880255
4	89157	29397.499894602439	6114.0747357867
4	89170	29404.034042724057	6104.7509304464
4	89195	29411.973702779224	6100.7406017538
4	89268	29436.65696268349	6122.1851002894
4	89287	29440.843404562687	6114.024536715
4	89297	29441.191915437565	6109.050508725
4	89302	29441.391304231841	6107.8511763034
4	89307	29442.505938738272	6078.5711564926
4	89326	29449.698239562066	6059.6107015513
4	89381	29467.299320004814	6060.0404728619
4	89414	29474.137281789821	6064.1808168832
4	89424	29475.344948990758	6063.6144865014
4	89447	29481.900708566361	6062.7271628847
4	89495	29492.474267230038	6071.9150854124
4	89508	29495.517468186208	6073.0441895452
4	89525	29500.18363685094	6072.6918604474
4	89543	29505.393156232901	6076.7601105927
4	89548	29506.378718666394	6075.970405459
4	89557	29509.36787242119	6072.4369600608
4	89567	29511.82741910934	6066.1288020107
4	89579	29517.730015716905	6069.4385420796
4	89591	29520.477463657938	6069.2148580957
4	89598	29523.841476021448	6071.7830073762
4	89607	29530.155135011252	6074.4980043256
4	89623	29540.776497491062	6079.2951690718
4	89758	29582.50813113468	6114.8570624576
4	89773	29587.088294718059	6119.2401719286
4	89786	29589.765986085155	6113.8243839606
4	89807	29596.719849186907	6114.1618668528
4	89838	29604.22561852369	6118.0578690483
4	89872	29608.001209933233	6121.5161470633
4	89891	29622.616060070009	6130.2980545978
4	89908	29626.134120333511	6111.1054935705
4	89916	29628.13061847508	6091.197509452
4	89935	29634.563646636016	6091.485296478
4	89962	29645.826385263289	6102.6694173092
4	89994	29652.39117847233	6097.9183686566
4	90003	29657.006284719711	6093.0456224859
4	90053	29672.678156842414	6107.7157872706
4	90127	29702.965621319633	6123.2290682241
4	90132	29705.221037879264	6124.5239753178
4	90145	29709.531332843166	6104.5087614332
4	90272	29752.479836462765	6145.4803317853
4	90277	29754.514834906909	6146.8703042361
4	90284	29755.845572529904	6138.7235738569
4	90299	29757.560719386691	6136.9230335988
4	90308	29764.817639978399	6137.9064942906
4	90321	29768.76693592802	6136.7811369605
4	90379	29784.119646715922	6148.3805179026
4	90400	29789.825514702075	6152.8892719016
4	90407	29792.689617157884	6152.2556903866
4	90420	29795.48400440656	6151.6983511168
4	90449	29807.160292211336	6161.1408580574
4	90458	29810.037939114484	6163.556180291
4	90475	29816.534673544411	6152.6628154973
4	90495	29824.554732966402	6158.452465558
4	90500	29824.715988770987	6150.0796304143
4	90513	29827.886397549885	6151.0228169744
4	90553	29838.946859224599	6160.6364819413
4	90733	29893.015310185606	6211.5235308297
4	90740	29893.803519861731	6198.1492099356
4	90747	29898.541064278913	6202.4257231891
4	90752	29900.296543633907	6199.4539728855
4	90759	29902.369565811714	6200.9202513618
4	90764	29906.666302639192	6200.4732724747
4	90775	29915.588731878606	6201.9232377203
4	90810	29920.953672160423	6200.1998301946
4	90825	29928.54513105503	6207.5413970441
4	90867	29938.832773840855	6209.9090640448
4	90907	29954.674212843873	6224.9416972449
4	90921	29964.703817709279	6228.7413719567
4	90945	29971.964087576145	6225.1280715689
4	90952	29973.727328188752	6220.1410382245
4	90965	29985.05452062033	6231.3467171508
4	90993	29996.115492415617	6231.680718848

