version 2
run Third-n3-11-20191016-17:04:54-11348
attr configname Third-n3
attr datetime 20191016-17:04:54
attr experiment Third-n3
attr inifile omnetpp.ini
attr iterationvars ""
attr iterationvarsf ""
attr measurement ""
attr network org.omnetpp.queueing.Pizza
attr processid 11348
attr repetition 11
attr replication ""
attr resultdir results
attr runnumber 11
attr seedset 11
param **.PS.maxInventoriedPS 3
param **.U1.interArrivalTime exponential(4s)
param **.U2.interArrivalTime exponential(6s)
param **.PS.serviceTimeForInventoryU1 exponential(1.4s)
param **.PS.serviceTimeForInventoryU2 exponential(1.4s)
param **.PS.serviceTimeDirectU1 exponential(1.8s)
param **.PS.serviceTimeDirectU2 exponential(1.8s)
param **.PS.probabilityProducing 0.8
param **.CS.serviceTimeU1 exponential(2.3s)
param **.CS.serviceTimeU2 exponential(2.3s)

vector 0 Pizza.EntryQueueU1 queueLength:vector ETV
attr interpolationmode sample-hold
attr title "queue length, vector"
vector 1 Pizza.CS queueLength:vector ETV
attr interpolationmode sample-hold
attr title "queue length, vector"
vector 2 Pizza.EntryQueueU2 queueLength:vector ETV
attr interpolationmode sample-hold
attr title "queue length, vector"
vector 3 Pizza.sink lifeTime:vector ETV
attr interpolationmode none
attr title "lifetime of arrived jobs, vector"
attr unit s
vector 4 Pizza.sink lifeTimeU2:vector ETV
attr interpolationmode none
attr title "lifetime of arrived jobs, vector"
attr unit s
vector 5 Pizza.sink lifeTimeU1:vector ETV
attr interpolationmode none
attr title "lifetime of arrived jobs, vector"
attr unit s
0	0	0	0
0	7	0.795119552695	1
0	9	1.6583795449	2
0	12	2.647125681843	1
0	22	6.821355299315	2
0	24	9.056364407368	1
0	30	10.734445944727	0
0	44	15.639857745999	1
0	46	16.136388030947	2
0	49	20.311364219588	1
0	58	26.157600677093	0
0	75	34.025632856308	1
0	79	34.254766823037	2
0	81	34.438543955424	3
0	82	35.580981742907	2
0	88	36.493038642627	3
0	89	36.924741630792	2
0	96	37.089411713407	1
0	101	38.527631293865	0
0	105	41.554292721032	1
0	111	46.098391715582	2
0	115	47.195479561884	3
0	117	47.458698974421	4
0	118	47.468129699226	3
0	122	47.634521300452	4
0	128	48.508079556008	5
0	134	48.800008254121	6
0	135	49.169361100862	5
0	142	55.597774924586	4
0	151	58.940805672239	3
0	155	59.100201342716	4
0	157	59.839823949578	5
0	161	61.061780525139	6
0	164	61.542173810608	5
0	176	71.277936372228	4
0	187	76.174654988817	5
0	189	76.865263625408	6
0	190	77.49170887266	5
0	197	79.911435099164	4
0	202	81.317665220334	3
0	209	82.649289959878	4
0	211	83.934376772008	5
0	212	84.400528721289	4
0	220	85.562426915897	5
0	223	85.937844838326	6
0	226	86.24969962655	7
0	228	86.327831202794	8
0	230	86.929034865206	9
0	234	92.631662286157	10
0	235	92.781532031704	9
0	242	94.067632089688	8
0	249	95.043127470967	9
0	250	95.226080992226	8
0	256	95.783768073807	9
0	258	98.328032804805	8
0	268	102.874750343754	7
0	274	102.943710064395	8
0	276	103.094202304996	9
0	277	103.809907532456	8
0	282	104.070739612327	7
0	289	105.398925657031	8
0	292	106.543172927783	7
0	300	110.370172577712	8
0	303	112.167931046517	7
0	308	112.388423722912	6
0	313	112.915230484347	5
0	321	116.080347174662	4
0	326	116.801988621048	3
0	334	118.74214322826	4
0	335	119.725413389313	3
0	344	125.728956398959	4
0	345	125.945414131467	3
0	355	128.656572813142	4
0	356	131.826135807229	3
0	361	133.408886287548	2
0	369	135.281191101506	1
0	374	136.172580400613	0
0	380	140.07461018128	1
0	387	147.422108682934	2
0	388	148.041382107524	1
0	395	148.84984270663	2
0	397	149.938894809662	3
0	399	150.762501778341	4
0	401	152.944106354385	5
0	402	154.182984969295	4
0	409	155.735761167661	3
0	414	156.13342089643	2
0	419	156.7287034278	1
0	426	157.402376857325	2
0	428	158.576102420508	1
0	434	158.591043052994	2
0	438	160.53733175943	3
0	440	160.68475616049	4
0	443	164.679462232286	3
0	449	166.536190763045	2
0	455	168.937979876908	1
0	460	169.547746057133	0
0	472	174.202213614201	1
0	473	175.12543357869	0
0	485	175.714286855513	1
0	487	177.39279848992	0
0	503	178.136281417106	1
0	508	179.635315631978	2
0	510	180.395475425321	1
0	517	181.047956891305	0
0	549	191.45752006831	1
0	550	196.203658858155	0
0	557	197.711814388738	1
0	558	198.3475266429	0
0	564	198.489975875732	1
0	565	199.004354211854	0
0	573	200.159055751211	1
0	575	201.578378786793	2
0	576	203.866745554246	1
0	582	204.363265474896	2
0	583	205.130190500281	1
0	589	207.096361365453	0
0	595	207.245921373253	1
0	597	208.414780602532	0
0	611	210.948524448029	1
0	613	211.03835572808	0
0	632	217.735286458479	1
0	636	218.397943831814	2
0	642	221.432987666915	3
0	644	222.500786973052	4
0	647	224.454913615922	3
0	652	224.85386906205	2
0	657	225.932433611769	1
0	665	227.64082346568	0
0	678	228.358832036186	1
0	680	228.455346330303	2
0	681	228.656275953932	1
0	687	230.05746161429	2
0	690	232.261940972175	1
0	699	238.640018456315	2
0	700	238.656515197314	1
0	709	240.725302169017	0
0	720	242.478958231808	1
0	724	243.815379295707	2
0	726	248.696931533021	1
0	731	249.997121517978	0
0	740	250.193863656327	1
0	746	252.25420688362	0
0	755	255.606518870777	1
0	757	258.254259427562	2
0	763	261.548882131253	1
0	768	263.296422852527	0
0	775	264.958856182135	1
0	776	265.327097679949	0
0	794	270.589477911962	1
0	802	278.404695998364	0
0	808	278.489283002817	1
0	810	279.104728483756	2
0	814	281.731212451041	1
0	822	286.030378042994	2
0	825	288.479492135478	1
0	830	290.767806778386	0
0	846	293.36974866328	1
0	848	293.483249094389	2
0	849	293.859192634965	1
0	855	294.222462444906	2
0	856	294.614294543517	1
0	864	296.118411412792	2
0	866	297.126537045744	1
0	872	297.829003905244	0
0	880	298.256193101937	1
0	883	300.246433952146	2
0	884	301.444494901303	1
0	890	301.456419045143	2
0	891	301.626397261651	1
0	899	307.046800648378	0
0	934	316.969573297652	1
0	936	317.032936737997	2
0	939	320.530936742238	1
0	946	320.777214324526	2
0	951	322.513328800903	3
0	952	324.016406177849	2
0	961	329.29794123741	3
0	963	333.282051391496	4
0	965	333.880187355451	5
0	968	334.665811483676	4
0	974	335.090156104774	3
0	981	336.419538222203	2
0	988	340.760677153486	3
0	989	341.63591681431	2
0	995	342.436081196469	3
0	996	344.073077603226	2
0	1002	344.612425943969	3
0	1007	347.78952191291	2
0	1015	350.110038406059	1
0	1020	350.688436766608	0
0	1040	359.654939918393	1
0	1041	360.608730539028	0
0	1055	370.560446274221	1
0	1058	371.779760133275	0
0	1084	383.495760865884	1
0	1085	387.558102074852	0
0	1097	387.85322302155	1
0	1099	389.233006694439	2
0	1103	392.845181299544	3
0	1104	394.276582720317	2
0	1110	395.088930958337	1
0	1115	395.454582390654	0
0	1124	397.444913474636	1
0	1125	397.568813960675	0
0	1148	400.687263122904	1
0	1153	405.105228146125	0
0	1165	406.702647286854	1
0	1166	408.094639248274	0
0	1177	410.621038265185	1
0	1184	413.680126918777	2
0	1188	415.572914262682	3
0	1189	415.80800174589	2
0	1197	419.71659265245	3
0	1198	420.725328544308	2
0	1206	423.769858912749	1
0	1212	426.869676335838	0
0	1233	428.01359140837	1
0	1235	428.954605316773	2
0	1237	430.020139158927	1
0	1243	430.824952483578	2
0	1250	432.187419971046	1
0	1260	436.008169546798	2
0	1262	437.414218922268	1
0	1268	437.725818459475	2
0	1269	437.892428441365	1
0	1274	437.950599340733	0
0	1280	438.434680566547	1
0	1282	440.760067949405	0
0	1291	442.47159958368	1
0	1292	442.511782870435	0
0	1314	447.842460353524	1
0	1316	450.564179936918	2
0	1317	451.062933024472	1
0	1322	451.39644206864	0
0	1340	459.018389308263	1
0	1341	461.145943805361	0
0	1353	467.709545085462	1
0	1355	468.980921628674	2
0	1356	469.230802333477	1
0	1361	469.240557820355	0
0	1368	473.235896564838	1
0	1371	473.81568897486	2
0	1372	474.928823452595	1
0	1378	474.963650616594	2
0	1380	475.677414019831	1
0	1385	475.682578353185	0
0	1415	495.370718232938	1
0	1417	495.976282444883	2
0	1420	497.645057713527	1
0	1427	500.388538447736	0
0	1440	503.893723787265	1
0	1442	504.418667914359	2
0	1444	504.704584368928	3
0	1447	505.175959951844	2
0	1458	508.334934573447	3
0	1460	508.8298813938	4
0	1461	509.163404485743	3
0	1470	515.148278220444	4
0	1471	515.460690294876	3
0	1477	515.76007624039	4
0	1479	516.237199953193	5
0	1482	518.924673910473	6
0	1483	518.950626481839	5
0	1494	524.887130749494	6
0	1496	525.30590866452	7
0	1497	525.706594503059	6
0	1504	529.583800508246	5
0	1510	530.777919635415	6
0	1511	530.874125035871	5
0	1517	533.568643289057	6
0	1519	534.884148285485	7
0	1520	536.771140160056	6
0	1529	538.253008832672	5
0	1535	539.193207479965	6
0	1537	540.085261954611	7
0	1538	541.491794099764	6
0	1544	541.814810236222	5
0	1550	541.877668290975	6
0	1551	542.15126744625	5
0	1556	544.285991514875	4
0	1564	550.805237177768	3
0	1569	551.055998943538	2
0	1576	554.7380964661	1
0	1581	555.462576529139	0
0	1628	566.810329203595	1
0	1631	567.27252455658	0
0	1638	570.16873128207	1
0	1639	570.576929028235	0
0	1646	574.793292045116	1
0	1650	576.366261001248	2
0	1652	577.263403956333	3
0	1653	577.835297346926	2
0	1658	578.725063384193	1
0	1663	579.855434987584	0
0	1669	579.878756236174	1
0	1670	583.826880507585	0
0	1674	585.792277836464	1
0	1678	586.37444329357	2
0	1679	586.816110289079	1
0	1685	588.281461578043	2
0	1689	590.280233968663	1
0	1696	591.135746115113	2
0	1697	591.381264515396	1
0	1703	592.98387245723	0
0	1711	596.476523374929	1
0	1714	597.880890403144	2
0	1715	601.321472864056	1
0	1720	601.423494167443	0
0	1746	608.024323995521	1
0	1747	610.874480771722	0
0	1758	612.360715310398	1
0	1760	613.258189003186	0
0	1770	614.704985502123	1
0	1772	614.771086988613	2
0	1775	615.522347911813	1
0	1786	621.497803284992	2
0	1787	621.702541339259	1
0	1792	622.16784160065	0
0	1798	623.74134332892	1
0	1799	624.360801242161	0
0	1811	628.48759133094	1
0	1815	630.053425603694	0
0	1822	632.346933295267	1
0	1823	633.993337590753	0
0	1861	647.02237884026	1
0	1862	647.365873263537	0
0	1894	658.491138758503	1
0	1898	658.641299779185	2
0	1906	663.414185742881	3
0	1909	664.05345408438	4
0	1910	664.926499854103	3
0	1916	665.844166586976	2
0	1922	666.228855909182	3
0	1924	668.061865927102	2
0	1930	671.691502898138	1
0	1944	675.207382335753	0
0	1950	675.280834249456	1
0	1951	676.415187375321	0
0	1970	679.192661202664	1
0	1972	679.328635198623	2
0	1974	682.791115396324	3
0	1978	683.768937141861	4
0	1979	685.049288549123	3
0	1985	686.445857212916	2
0	1990	687.350849087663	1
0	1997	688.287666649199	0
0	2008	691.220581172189	1
0	2012	691.942802752375	0
0	2018	692.544767374663	1
0	2020	693.065650648211	2
0	2021	693.157652312451	1
0	2026	693.550620920769	0
0	2030	694.418004532459	1
0	2036	697.366612270526	2
0	2039	698.603789756595	1
0	2044	700.73167491362	0
0	2070	702.470904480872	1
0	2072	707.083633873831	2
0	2073	707.655421679476	1
0	2079	707.781942292484	2
0	2080	708.66597767419	1
0	2090	709.787438678459	2
0	2091	711.556192211265	1
0	2096	711.6846912422	0
0	2102	711.735585295352	1
0	2104	714.06099099362	0
0	2114	715.614048117756	1
0	2117	717.045375159892	0
0	2123	717.326343474368	1
0	2125	717.808905117192	2
0	2126	719.838341071287	1
0	2136	724.422993178653	0
0	2145	726.691880352859	1
0	2146	726.889303977247	0
0	2157	728.469127980008	1
0	2159	733.162851134572	0
0	2165	733.602204697527	1
0	2170	738.318032017744	0
0	2177	740.782681140035	1
0	2180	742.435287657935	0
0	2204	747.224766210896	1
0	2205	748.593770506365	0
0	2212	751.161886714905	1
0	2214	752.608634471271	2
0	2216	753.359038647918	3
0	2217	754.264184450055	2
0	2224	756.090801875046	1
0	2232	757.514856585729	2
0	2235	762.305559123551	1
0	2245	764.674105704847	0
0	2251	766.164018493237	1
0	2253	766.383021962224	2
0	2255	771.507016477837	1
0	2261	772.157015817575	0
0	2267	777.584607992846	1
0	2268	778.088001094979	0
0	2279	780.369472357599	1
0	2281	781.658128068249	0
0	2287	781.9868000339	1
0	2289	782.123651980046	2
0	2290	783.199381740285	1
0	2297	785.067156707987	0
0	2330	793.971618345246	1
0	2334	795.93222041569	2
0	2338	798.36643850683	3
0	2339	800.304796875194	2
0	2345	800.528751857102	3
0	2347	800.598489753476	4
0	2351	804.289654473986	3
0	2356	804.394357793503	2
0	2363	804.952759981961	1
0	2370	805.723063028198	2
0	2374	806.125908374429	3
0	2375	806.335647493637	2
0	2380	806.723724020482	1
0	2386	808.443473977613	0
0	2402	810.076874530291	1
0	2404	810.459051684846	2
0	2406	811.186751362935	3
0	2407	811.78066930035	2
0	2416	817.358447664038	3
0	2418	818.008858827439	2
0	2424	818.187050429788	3
0	2431	823.151445372724	4
0	2434	825.295059960691	5
0	2435	825.716315404075	4
0	2440	826.288177475245	3
0	2445	826.673061369189	2
0	2451	826.745892350095	3
0	2453	827.688239813561	4
0	2454	827.94825065009	3
0	2466	833.018532931216	2
0	2472	834.463407650333	1
0	2478	835.634059753267	0
0	2487	836.955910237038	1
0	2489	838.206021545001	2
0	2494	840.326461261397	1
0	2501	841.646289818437	2
0	2505	843.482032005037	1
0	2511	843.669256747502	2
0	2513	843.79855989293	1
0	2518	844.768264633738	0
0	2528	852.236204895028	1
0	2529	853.153843574233	0
0	2533	856.000669516223	1
0	2541	860.371949565384	2
0	2542	861.557787105021	1
0	2548	863.485204855478	2
0	2550	863.817086663998	3
0	2552	863.992423879366	4
0	2556	865.737154728995	5
0	2558	866.25718465607	6
0	2559	867.379448609639	5
0	2565	867.504122219117	6
0	2567	869.155217159	5
0	2572	869.252277447889	4
0	2578	869.679628610143	5
0	2581	871.581063058259	6
0	2583	871.720441812573	7
0	2588	873.305829928933	8
0	2590	873.38213268387	9
0	2594	873.892336102387	10
0	2598	876.01098644439	11
0	2599	876.232233274046	10
0	2604	881.470417159019	9
0	2609	883.23276805582	8
0	2619	888.803055192994	7
0	2624	892.308521971981	6
0	2630	892.757732269342	7
0	2631	893.35970706844	6
0	2637	894.434044865389	5
0	2643	895.274202487303	6
0	2644	895.313000933654	5
0	2650	896.080460241259	6
0	2651	896.507281187166	5
0	2657	898.018547718419	4
0	2662	898.496889026659	3
0	2667	902.255414373718	2
0	2672	903.775217679461	1
0	2681	904.909414615076	2
0	2684	905.501560406712	3
0	2686	906.937380649805	2
0	2692	909.700588729836	1
0	2698	910.578671259283	0
0	2717	916.68997183737	1
0	2718	916.712052435109	0
0	2735	919.748608401625	1
0	2738	921.96534496723	0
0	2746	925.070778914961	1
0	2748	925.561077915121	2
0	2749	925.990232856503	1
0	2757	928.215607502801	0
0	2774	931.300510515421	1
0	2778	933.084552282827	2
0	2779	935.08305250629	1
0	2786	936.320263916294	2
0	2787	937.221675048424	1
0	2793	938.697306599167	0
0	2809	944.078810343556	1
0	2811	944.692031353614	2
0	2812	945.208045198411	1
0	2817	945.488528345854	0
0	2823	945.872055699648	1
0	2824	946.05219326791	0
0	2857	956.464443798096	1
0	2858	958.405930913262	0
0	2864	958.717958640819	1
0	2866	960.180317251088	2
0	2867	960.300695968282	1
0	2872	961.729451337631	0
0	2888	966.434706125329	1
0	2890	966.808808332714	2
0	2891	967.370933021686	1
0	2898	973.50914310676	2
0	2900	974.039935853592	3
0	2901	980.364737100267	2
0	2910	980.653132123939	3
0	2911	982.089384073255	2
0	2922	988.608148996983	3
0	2925	991.950234423246	2
0	2931	992.161275065926	3
0	2934	994.135737748567	4
0	2939	998.56615302745	3
0	2945	998.832160841076	4
0	2946	999.470244202704	3
0	2951	999.763898157652	2
0	2959	1001.860007458523	1
0	2965	1003.234572839109	0
0	2971	1003.29787604272	1
0	2973	1003.894687855143	2
0	2975	1004.094999341783	3
0	2977	1004.414538491788	2
0	2985	1007.089487675978	3
0	2990	1007.882773326583	2
0	2997	1008.446701163128	3
0	2998	1012.825030547037	2
0	3004	1014.46695759295	3
0	3006	1016.510006880986	2
0	3011	1017.438786744038	1
0	3016	1018.009938103196	0
0	3033	1024.162571307796	1
0	3039	1025.784037984318	2
0	3042	1026.110328768936	1
0	3052	1028.281664870153	2
0	3054	1029.171605069235	3
0	3055	1029.543510666927	2
0	3062	1029.658440183197	3
0	3063	1030.531895389683	2
0	3069	1031.875408089256	3
0	3071	1031.953889524845	4
0	3072	1032.968301745496	3
0	3081	1039.701545966654	4
0	3082	1040.397984917885	3
0	3088	1042.535725159881	2
0	3093	1042.582219391391	1
0	3101	1043.382986456989	2
0	3102	1045.520871280713	1
0	3109	1046.681315930664	2
0	3110	1047.511819939133	1
0	3116	1047.864304884636	2
0	3117	1050.447747729354	1
0	3124	1055.043208743609	0
0	3136	1056.319901650711	1
0	3137	1059.262467585707	0
0	3152	1063.142168742558	1
0	3153	1064.390122807267	0
0	3201	1071.528424768716	1
0	3204	1075.779035221226	0
0	3211	1075.946216926387	1
0	3214	1077.50852497284	2
0	3215	1078.646945038207	1
0	3222	1079.592933015788	2
0	3231	1084.258934609031	1
0	3236	1085.089136399552	0
0	3242	1086.572539095618	1
0	3248	1089.857986949297	2
0	3249	1090.702916909432	1
0	3255	1092.442660606172	0
0	3261	1092.620537126891	1
0	3262	1093.136849767757	0
0	3276	1095.384235849305	1
0	3278	1096.074274223904	0
0	3284	1096.83400318333	1
0	3285	1097.312209264978	0
0	3293	1098.863057881467	1
0	3294	1101.123957592156	0
0	3306	1101.666294218842	1
0	3307	1101.932305777314	0
0	3313	1102.23931140414	1
0	3320	1104.086242433681	2
0	3323	1105.540253650593	1
0	3329	1106.14488580922	0
0	3349	1111.213236956638	1
0	3350	1111.715125762857	0
0	3357	1113.251545631338	1
0	3358	1113.52975724088	0
0	3390	1125.665154977992	1
0	3394	1125.975207757063	2
0	3397	1127.059754594678	1
0	3407	1131.795538388357	0
0	3422	1140.900351179132	1
0	3426	1144.868659910799	2
0	3427	1146.7033035253	1
0	3434	1147.781855080479	2
0	3435	1149.266537478681	1
0	3442	1150.278612706054	2
0	3444	1150.303240290689	3
0	3449	1150.604259039839	4
0	3450	1151.145279717712	3
0	3455	1151.161757056138	2
0	3464	1154.696235987323	3
0	3465	1157.583890991388	2
0	3471	1162.447919165994	3
0	3473	1164.169338755945	4
0	3474	1164.708258577024	3
0	3480	1164.844486046919	4
0	3482	1165.223518620013	5
0	3484	1165.793916006246	4
0	3490	1167.664426222043	3
0	3496	1170.460464306529	2
0	3502	1173.20407413058	1
0	3508	1173.385969481461	2
0	3511	1176.726640361725	1
0	3518	1178.381337318854	0
0	3531	1183.113847052479	1
0	3532	1183.535927491961	0
0	3538	1183.680136184009	1
0	3540	1183.742813172932	2
0	3541	1184.264732582221	1
0	3547	1184.520046080785	0
0	3557	1190.547978851256	1
0	3559	1191.096974080556	2
0	3561	1193.290468428562	3
0	3562	1195.357228347008	2
0	3568	1197.905927881219	1
0	3574	1198.035326059932	2
0	3576	1201.985828960024	1
0	3585	1203.779707557732	0
0	3600	1208.854876414623	1
0	3601	1209.357208264843	0
0	3623	1216.421904670606	1
0	3625	1217.912509179514	2
0	3630	1218.985103069077	3
0	3633	1221.684384516654	2
0	3639	1223.026651835307	3
0	3640	1223.794416175423	2
0	3646	1224.573081204661	3
0	3652	1229.338628293216	4
0	3654	1229.425251937444	5
0	3657	1230.74344209823	4
0	3662	1230.946136067103	3
0	3668	1231.906633437607	2
0	3676	1233.724243073062	1
0	3687	1235.972733505175	0
0	3694	1236.444882122847	1
0	3698	1238.040977856165	2
0	3700	1240.288434800965	3
0	3701	1240.641864912595	2
0	3706	1240.823778318658	1
0	3711	1241.951786143597	0
0	3726	1244.941212450161	1
0	3734	1249.762944455041	0
0	3740	1250.113164798856	1
0	3742	1250.466902473653	2
0	3745	1252.243180544869	3
0	3746	1252.968979698977	2
0	3752	1253.949443384651	1
0	3757	1254.635153138204	0
0	3775	1261.24162232532	1
0	3777	1262.261635282184	2
0	3779	1263.534317789777	3
0	3780	1266.501724586642	2
0	3791	1272.280588287287	1
0	3797	1274.406860364543	0
0	3803	1274.675863877497	1
0	3806	1278.255638606568	2
0	3807	1280.051634615489	1
0	3813	1281.007004670643	0
0	3819	1281.419095125762	1
0	3821	1282.371688352224	2
0	3824	1283.407145882972	3
0	3825	1284.572003460159	2
0	3830	1285.483248912321	1
0	3837	1288.458946523097	0
0	3851	1291.558956244563	1
0	3853	1293.093334635933	2
0	3854	1293.547947908889	1
0	3860	1294.120645542653	0
0	3900	1318.630595736871	1
0	3903	1322.037926167665	0
0	3920	1324.892540467182	1
0	3922	1326.877095725057	2
0	3924	1327.008239718474	3
0	3925	1328.852327070042	2
0	3932	1330.801455984677	1
0	3942	1334.549093910101	0
0	3948	1335.19969929514	1
0	3950	1336.891952297462	0
0	3965	1339.075894714772	1
0	3968	1341.485848547787	0
0	3982	1343.949108107378	1
0	3983	1344.165763356195	0
0	4009	1349.417824292706	1
0	4010	1357.099196742184	0
0	4021	1358.086554888115	1
0	4022	1358.229552661789	0
0	4035	1361.664651220939	1
0	4040	1363.524133034942	2
0	4041	1364.038386173113	1
0	4047	1367.881122522364	0
0	4053	1368.056715990232	1
0	4056	1368.112484979288	2
0	4057	1368.856031027654	1
0	4062	1369.370680588264	0
0	4068	1369.58640441228	1
0	4069	1370.002150331884	0
0	4093	1383.538930237392	1
0	4095	1383.88957790523	2
0	4098	1395.667231853129	1
0	4107	1399.472302016279	2
0	4108	1400.453967933635	1
0	4116	1406.508844235926	0
0	4132	1408.784456922476	1
0	4133	1409.057538896241	0
0	4147	1414.766770992656	1
0	4151	1417.395884388105	0
0	4157	1417.748294638582	1
0	4159	1418.504508599283	0
0	4182	1425.451062230232	1
0	4184	1427.555753609249	2
0	4185	1427.970929229518	1
0	4194	1428.968132831338	2
0	4195	1429.704326616312	1
0	4204	1433.952955124523	0
0	4239	1441.675819006504	1
0	4244	1445.039542927614	0
0	4260	1448.756169523006	1
0	4262	1449.699222527814	2
0	4265	1450.584078896424	1
0	4271	1450.937049783855	2
0	4273	1452.170466308863	3
0	4276	1453.541552012178	2
0	4281	1454.005952427902	1
0	4287	1456.083003503061	2
0	4289	1456.406541218942	1
0	4299	1460.224477124488	0
0	4323	1465.963267919862	1
0	4324	1466.017653419327	0
0	4330	1466.175182090579	1
0	4335	1469.26549068013	2
0	4337	1471.161797977378	3
0	4340	1473.763317699108	2
0	4346	1478.833030872995	1
0	4351	1478.881751426929	0
0	4372	1484.829171310018	1
0	4377	1487.672472964431	0
0	4387	1489.331463808682	1
0	4391	1491.405525221078	2
0	4396	1494.82026682256	1
0	4402	1494.930377935087	2
0	4404	1496.869859286598	3
0	4410	1503.67270031636	2
0	4416	1505.662504350203	1
0	4422	1505.927767463825	2
0	4425	1508.698946630002	3
0	4426	1508.939788215207	2
0	4432	1509.063594735777	3
0	4441	1512.234104298159	4
0	4447	1514.910041249691	5
0	4449	1516.259600670205	6
0	4451	1516.865480102133	7
0	4453	1517.315250246287	8
0	4455	1517.394635976439	9
0	4456	1519.229975093293	8
0	4463	1521.602856231516	9
0	4465	1522.7076339573	10
0	4467	1523.780491735538	11
0	4468	1524.053411252896	10
0	4474	1524.497515975536	11
0	4476	1524.643255718605	12
0	4477	1525.486382639244	11
0	4483	1525.82128225318	12
0	4484	1526.939137927365	11
0	4495	1530.65666147624	12
0	4496	1530.84424033011	11
0	4503	1533.86946940911	12
0	4505	1534.571725437437	11
0	4511	1536.478960160816	10
0	4516	1536.487176472564	9
0	4521	1536.908392484572	8
0	4529	1537.943806054652	9
0	4532	1539.106020748928	8
0	4539	1542.246922154135	7
0	4546	1542.883467739255	8
0	4547	1543.073644086176	7
0	4552	1543.967904517477	6
0	4558	1544.518822338313	7
0	4563	1548.135449709223	8
0	4565	1548.811438935372	7
0	4573	1549.622080549124	8
0	4575	1550.082841707154	9
0	4577	1551.155543766609	10
0	4579	1554.601334382973	11
0	4584	1555.720264626064	12
0	4585	1555.937394058286	11
0	4592	1560.772505995314	12
0	4593	1561.620764477331	11
0	4598	1561.78493559223	10
0	4604	1562.59642191023	11
0	4605	1562.656635658741	10
0	4611	1564.163499913448	9
0	4617	1565.638599479666	10
0	4622	1567.130930918646	11
0	4623	1567.213610944869	10
0	4632	1569.629118651956	11
0	4634	1569.957177290518	12
0	4637	1571.005722032907	11
0	4642	1572.190416076938	10
0	4648	1573.153597260392	9
0	4654	1574.933352723525	8
0	4660	1576.786459593635	7
0	4665	1577.251313977899	6
0	4671	1577.843049696481	5
0	4675	1580.770541651472	6
0	4681	1582.242255790502	7
0	4682	1583.144136856669	6
0	4688	1584.507995446797	5
0	4693	1584.851509585871	4
0	4699	1585.943550141564	5
0	4700	1586.543512000123	4
0	4707	1589.323051770765	5
0	4710	1590.723273821604	4
0	4716	1591.092424482825	5
0	4719	1593.557530356257	6
0	4722	1594.044801427891	5
0	4728	1594.397748723017	4
0	4733	1595.077482958178	3
0	4740	1596.181879091253	2
0	4746	1600.749531483475	3
0	4752	1604.003690072554	4
0	4754	1605.137352921222	3
0	4760	1605.47253417011	4
0	4762	1606.444764842538	5
0	4763	1607.631814506456	4
0	4768	1607.951610862359	3
0	4773	1608.170985026189	2
0	4777	1608.582760867711	3
0	4782	1611.930907221779	4
0	4784	1613.426078270057	3
0	4789	1614.335490042307	2
0	4797	1615.819774229482	1
0	4802	1616.618953945448	0
0	4840	1637.376363850755	1
0	4843	1643.173402212572	0
0	4855	1644.176775935651	1
0	4859	1647.236685239427	2
0	4861	1647.810531138332	3
0	4862	1648.579925043474	2
0	4867	1648.680368602968	1
0	4872	1649.057261314072	0
0	4876	1649.337989059794	1
0	4883	1655.400477670309	2
0	4886	1657.449297518754	1
0	4895	1660.778313450615	2
0	4898	1662.945579967013	1
0	4909	1664.860686113529	2
0	4910	1666.218774971587	1
0	4916	1667.84575183416	0
0	4923	1670.04088620908	1
0	4924	1670.248626417902	0
0	4936	1672.155448024922	1
0	4938	1673.750047727804	2
0	4939	1673.803836373018	1
0	4944	1674.630832120053	0
0	4951	1677.548422078751	1
0	4953	1678.782129008967	2
0	4955	1680.246642686036	1
0	4960	1680.572472022338	0
0	4977	1682.404287386931	1
0	4980	1684.044489144097	2
0	4981	1685.77425591995	1
0	4986	1685.815515888492	0
0	4992	1688.145818991338	1
0	4997	1690.980237869476	0
0	5001	1691.010475185367	1
0	5007	1693.50072667108	2
0	5008	1693.648402829188	1
0	5013	1693.692445746039	0
0	5019	1694.613246707722	1
0	5025	1697.32424227697	0
0	5032	1698.577338517125	1
0	5033	1699.536574429495	0
0	5048	1704.903697043949	1
0	5049	1705.326183602729	0
0	5055	1705.916796523579	1
0	5058	1708.285574863193	2
0	5060	1709.766106735256	1
0	5069	1713.15867366647	0
0	5078	1720.78878833852	1
0	5079	1720.860830099646	0
0	5086	1723.737924558432	1
0	5088	1724.987745305228	2
0	5090	1725.507055680261	3
0	5092	1726.528362001931	4
0	5095	1727.798363536047	3
0	5101	1728.511505026392	2
0	5110	1728.917837783428	3
0	5112	1732.224175862954	4
0	5113	1732.35463711037	3
0	5118	1733.994781860898	2
0	5123	1734.975348992569	1
0	5129	1737.95122268705	2
0	5131	1739.268949864684	3
0	5133	1740.550070011341	4
0	5135	1740.749628486957	5
0	5137	1741.109266235964	6
0	5138	1742.075184056183	5
0	5142	1743.055374352639	6
0	5146	1744.319032006166	7
0	5147	1744.6055012838	6
0	5151	1746.837942325069	7
0	5153	1748.846803565722	8
0	5157	1751.24329547366	9
0	5162	1753.569743808084	8
0	5168	1754.172579192048	9
0	5171	1755.622266699895	8
0	5180	1756.641695684156	7
0	5185	1757.257881715632	6
0	5192	1757.478225488725	7
0	5196	1763.58939475597	8
0	5198	1765.696789372085	9
0	5200	1768.197274986176	10
0	5201	1772.114490449184	9
0	5206	1772.73768890427	8
0	5212	1773.070020819856	9
0	5215	1775.400452611556	10
0	5217	1778.99191415004	9
0	5224	1779.294040307336	10
0	5226	1781.109882100906	11
0	5227	1782.405999626584	10
0	5233	1784.5137960354	9
0	5238	1785.586843590839	8
0	5243	1785.804515394963	7
0	5250	1792.385625810786	6
0	5256	1793.772515267903	7
0	5260	1795.979337202803	6
0	5266	1796.329594780749	7
0	5268	1796.982982749143	6
0	5279	1799.09111190821	7
0	5280	1799.320358789843	6
0	5287	1801.232050269521	7
0	5289	1801.734551930562	8
0	5290	1802.379017834314	7
0	5295	1802.464986558327	6
0	5299	1803.190537105766	7
0	5301	1803.473656329673	8
0	5307	1809.949423041459	9
0	5309	1810.611979462229	8
0	5320	1814.924123729182	9
0	5324	1817.489078674083	10
0	5326	1817.996302405132	11
0	5329	1819.364778232715	10
0	5335	1819.406532540383	11
0	5337	1822.317774287599	10
0	5345	1823.313234838094	9
0	5354	1824.583139385574	10
0	5355	1825.187489791507	9
0	5363	1827.861985804069	10
0	5364	1827.993319565194	9
0	5369	1828.753212512353	8
0	5374	1830.877981113711	7
0	5381	1832.872941665385	6
0	5390	1835.994360824547	7
0	5392	1836.210646416503	8
0	5393	1836.388067640699	7
0	5400	1836.901768455004	8
0	5402	1838.166038136928	7
0	5409	1839.935120085866	6
0	5415	1841.981552331516	7
0	5416	1844.859621687497	6
0	5422	1848.205526320698	7
0	5424	1848.328374597002	8
0	5426	1848.370240004014	9
0	5435	1851.132231745273	8
0	5441	1851.717847488187	9
0	5442	1853.882821098458	8
0	5448	1854.197709686521	9
0	5452	1856.44920325491	10
0	5454	1858.025997262237	11
0	5455	1858.482444618714	10
0	5459	1858.594222308976	11
0	5461	1863.912966147311	12
0	5469	1866.079400356714	13
0	5471	1866.211780301737	14
0	5472	1866.926340170009	13
0	5479	1868.009131884794	12
0	5484	1868.48748625212	11
0	5488	1870.866816093356	12
0	5490	1872.043350255212	13
0	5499	1878.843827582577	12
0	5505	1879.411097268492	11
0	5513	1881.288243278546	10
0	5518	1881.375352955058	9
0	5525	1882.575029213502	10
0	5527	1882.671670567557	11
0	5528	1882.824535431245	10
0	5540	1885.197725384942	11
0	5542	1885.808133555496	12
0	5543	1886.602432299862	11
0	5551	1888.648681287531	12
0	5552	1893.117718816785	11
0	5557	1894.383260721447	10
0	5563	1897.094003931509	9
0	5569	1898.035049144306	10
0	5571	1899.173537392607	11
0	5572	1899.879889066584	10
0	5578	1899.940256546497	11
0	5587	1906.145877678149	10
0	5591	1907.983706169679	11
0	5597	1910.778380395581	12
0	5598	1911.338596301603	11
0	5602	1911.507997043576	12
0	5604	1911.919308756076	13
0	5606	1911.98660328945	14
0	5609	1913.579468086331	13
0	5622	1919.259702157458	14
0	5623	1921.792930658821	13
0	5629	1922.452987298121	14
0	5631	1924.187471980134	15
0	5634	1925.492951321233	14
0	5640	1925.824633407385	15
0	5641	1926.085114174917	14
0	5647	1928.195673003083	13
0	5657	1932.252538400999	12
0	5663	1935.619652020636	11
0	5669	1938.249675588296	10
0	5675	1939.492630145388	9
0	5681	1940.008066697165	10
0	5682	1940.06692937044	9
0	5688	1942.004457048013	10
0	5689	1942.643007440425	9
0	5695	1943.549986823057	8
0	5701	1947.389894662362	7
0	5706	1947.509937791233	6
0	5710	1948.049460898623	7
0	5712	1948.40848237582	8
0	5718	1953.029127655526	9
0	5723	1960.775739110022	10
0	5728	1963.858042799905	9
0	5734	1964.132047728692	10
0	5737	1966.341387591798	11
0	5739	1967.452857498585	12
0	5740	1970.233163832436	11
0	5745	1971.237668663274	10
0	5754	1971.845120421593	11
0	5756	1973.855707645993	10
0	5764	1976.313193443482	9
0	5769	1976.471695722365	8
0	5779	1981.884030551178	9
0	5780	1982.93806238314	8
0	5785	1983.485110674788	7
0	5790	1984.151215480668	6
0	5800	1990.330260454676	7
0	5802	1991.054128207991	8
0	5804	1992.482441879129	9
0	5806	1992.932495282305	10
0	5807	1993.529020481566	9
0	5814	1993.977072240102	10
0	5816	1995.141510771923	9
0	5822	1996.270929734885	10
0	5823	1996.342646625066	9
0	5830	2001.300404562425	8
0	5836	2001.346535780856	9
0	5837	2001.976627672366	8
0	5841	2003.001500959433	9
0	5850	2009.196464438042	10
0	5855	2012.666748796912	9
0	5861	2012.76834984427	10
0	5863	2012.930471683666	11
0	5867	2014.752673680523	10
0	5874	2015.239136470466	11
0	5879	2018.316885673396	10
0	5885	2021.400194312411	9
0	5894	2022.212926077456	10
0	5897	2023.093848819275	9
0	5903	2024.188429727636	10
0	5905	2024.756695167524	11
0	5913	2031.573842006481	10
0	5918	2035.195623453133	9
0	5923	2036.095988471145	8
0	5932	2041.312517178455	9
0	5933	2043.222662273066	8
0	5939	2043.442246101721	9
0	5940	2044.533225235798	8
0	5947	2046.603656188112	7
0	5953	2047.109780681188	6
0	5958	2047.198887783656	5
0	5962	2048.383965570831	6
0	5969	2052.548348224081	7
0	5970	2052.966864165353	6
0	5977	2056.603301747195	7
0	5984	2067.186740352047	6
0	5993	2072.376323427172	7
0	5994	2074.059628706714	6
0	5999	2074.346554626845	5
0	6006	2076.389235983585	4
0	6012	2077.095038919616	5
0	6013	2077.171870991749	4
0	6021	2079.99784285304	5
0	6023	2081.075855497918	4
0	6031	2084.670525428799	5
0	6034	2085.394401405323	4
0	6039	2085.879497172832	3
0	6046	2086.810916694596	2
0	6052	2087.198965081934	3
0	6056	2087.821291325497	4
0	6059	2088.339666655729	5
0	6061	2089.169564134979	4
0	6066	2089.359248482831	3
0	6071	2089.992113005119	2
0	6076	2090.525472194586	1
0	6080	2093.098908095422	2
0	6082	2093.749600945056	3
0	6088	2095.086862613365	2
0	6093	2095.780018593023	1
0	6099	2097.307018625707	2
0	6101	2098.862259530389	3
0	6106	2101.017999792931	2
0	6111	2102.302173183708	1
0	6117	2102.93809180884	2
0	6119	2103.694884071538	3
0	6121	2104.410967215722	4
0	6126	2106.111098960472	3
0	6130	2106.511861080746	4
0	6132	2107.715570329542	5
0	6136	2108.448114542376	6
0	6138	2111.49031481652	7
0	6145	2118.109896145888	6
0	6153	2121.698613741857	7
0	6160	2123.442237271703	6
0	6166	2124.183422167419	7
0	6167	2125.608090869746	6
0	6175	2127.26592433328	7
0	6177	2130.31760774742	6
0	6182	2130.830186485438	5
0	6188	2132.384992304718	6
0	6192	2132.944939554311	5
0	6199	2133.344082702318	6
0	6200	2133.704164448751	5
0	6205	2133.748778093376	4
0	6209	2134.088444122309	5
0	6212	2137.928727548505	4
0	6217	2140.822831255535	3
0	6223	2144.335283263826	2
0	6234	2150.409643169285	1
0	6239	2150.875928373102	0
0	6247	2151.565899578186	1
0	6249	2151.848807474835	2
0	6252	2155.499369788276	1
0	6260	2162.442671077594	2
0	6261	2162.554666042479	1
0	6268	2164.507927588093	2
0	6270	2170.586423129001	1
0	6275	2171.676094695027	0
0	6313	2186.860585173244	1
0	6315	2187.334039273474	2
0	6316	2188.830805785005	1
0	6322	2190.078473283957	0
0	6345	2197.978670495443	1
0	6347	2198.297343533411	2
0	6348	2199.910270592698	1
0	6354	2200.107306852462	2
0	6357	2201.605209192502	3
0	6358	2202.724437637666	2
0	6364	2203.164457234572	1
0	6370	2207.377003225357	0
0	6378	2207.616390587092	1
0	6380	2208.736626714182	2
0	6382	2210.317956484275	3
0	6385	2218.698967364412	2
0	6391	2219.285348547506	3
0	6395	2221.86603493694	2
0	6400	2222.313060328842	1
0	6405	2222.89857029564	0
0	6409	2222.899910294796	1
0	6411	2223.518667306448	2
0	6418	2227.111270100478	1
0	6423	2227.708663786649	0
0	6436	2230.000343124288	1
0	6441	2232.817931920417	0
0	6453	2235.110543873254	1
0	6458	2237.207713067367	2
0	6459	2240.203127736524	1
0	6464	2241.188081689255	0
0	6506	2253.115899119514	1
0	6507	2255.83733255704	0
0	6513	2256.266740839958	1
0	6516	2258.702491878409	2
0	6517	2260.025603439655	1
0	6523	2262.081673446637	0
0	6539	2265.784549829754	1
0	6544	2267.226963465775	0
0	6558	2271.530727405528	1
0	6560	2271.746345472168	2
0	6564	2272.025856173194	1
0	6570	2272.435165764422	0
0	6584	2277.666036602717	1
0	6585	2278.891901921562	0
0	6594	2282.504641382659	1
0	6598	2285.894936967655	0
0	6625	2292.135046469396	1
0	6628	2292.783479117018	0
0	6645	2295.216089602969	1
0	6651	2301.465307653903	2
0	6652	2302.343753445371	1
0	6659	2304.606626182377	2
0	6660	2304.612279292521	1
0	6667	2305.633640275496	0
0	6674	2307.989673430426	1
0	6676	2308.296397425351	2
0	6678	2308.828390279996	1
0	6688	2312.99899827169	2
0	6691	2315.702902936228	1
0	6697	2317.90683891779	0
0	6704	2319.723740380983	1
0	6706	2320.063943099915	2
0	6707	2320.331082417873	1
0	6712	2321.000771383927	0
0	6730	2326.776321273982	1
0	6734	2328.642206221065	2
0	6736	2331.80416457732	3
0	6738	2332.126478236061	4
0	6741	2333.019632661365	3
0	6747	2333.696222150061	4
0	6750	2335.075055074405	3
0	6755	2335.413695873249	2
0	6761	2335.981589322053	3
0	6764	2337.378808747426	4
0	6767	2338.674263054715	5
0	6775	2345.47410544001	4
0	6780	2346.010979755019	3
0	6786	2349.245476262414	4
0	6787	2349.350798465713	3
0	6792	2349.511387350413	2
0	6796	2352.489178317867	3
0	6799	2353.326142804892	2
0	6805	2356.894292051007	1
0	6811	2357.962905316002	0
0	6829	2359.090315405084	1
0	6831	2361.418091018843	0
0	6838	2361.760961576879	1
0	6840	2361.819701067329	2
0	6843	2363.575664216404	1
0	6850	2365.577345191595	0
0	6873	2369.122196171138	1
0	6874	2369.427890109059	0
0	6895	2374.597673101958	1
0	6899	2378.569991613242	2
0	6902	2380.6606255195	1
0	6911	2384.171332787682	0
0	6928	2391.943757837394	1
0	6932	2394.234191712459	2
0	6933	2394.341408018536	1
0	6939	2396.705377907248	0
0	6962	2405.234734903328	1
0	6963	2405.548405252496	0
0	6969	2407.141584452258	1
0	6970	2407.617501025884	0
0	6982	2411.132736674007	1
0	6985	2412.508636893507	0
0	6999	2414.544555231667	1
0	7000	2417.945161391245	0
0	7014	2422.643937901929	1
0	7015	2422.897691531504	0
0	7022	2423.245814934076	1
0	7024	2427.703332210453	2
0	7026	2429.453976952471	3
0	7027	2432.510123800944	2
0	7033	2432.52825598719	3
0	7035	2432.642539473818	4
0	7036	2432.705897117134	3
0	7042	2435.381441379451	2
0	7047	2435.578465494446	1
0	7056	2438.029542710688	0
0	7062	2439.079036936723	1
0	7065	2441.745174508166	2
0	7066	2442.269064654215	1
0	7072	2442.852006697986	0
0	7078	2443.724087355855	1
0	7081	2446.297961315117	0
0	7092	2447.089709780137	1
0	7093	2447.239384761425	0
0	7115	2451.707800180239	1
0	7119	2455.021382951637	2
0	7122	2457.008038903237	1
0	7128	2457.367757044936	2
0	7129	2458.94140815909	1
0	7135	2458.97963746266	2
0	7141	2463.188965334161	3
0	7142	2463.293985147465	2
0	7149	2463.78725125189	3
0	7150	2466.090285911284	2
0	7156	2466.880218848257	1
0	7161	2467.00508127746	0
0	7172	2467.863438336389	1
0	7174	2470.654055513397	0
0	7183	2476.967336568183	1
0	7187	2478.492685530222	2
0	7189	2479.346938706395	3
0	7191	2482.179290964707	4
0	7193	2482.398026933609	5
0	7194	2482.933201879894	4
0	7201	2484.439274151607	5
0	7205	2486.767536285108	4
0	7211	2487.362335765817	3
0	7218	2488.934823907035	2
0	7224	2489.819115804762	1
0	7230	2491.056541482743	2
0	7233	2492.443243642445	1
0	7239	2493.931757995349	0
0	7246	2494.208628425051	1
0	7248	2494.547260719452	2
0	7249	2495.364084839133	1
0	7255	2495.613724406634	0
0	7261	2495.7652452844	1
0	7263	2497.577017525973	0
0	7285	2503.394854306438	1
0	7286	2503.538714986345	0
0	7297	2504.811601043333	1
0	7299	2505.787202098333	0
0	7310	2507.089679404692	1
0	7312	2507.334147172814	0
0	7319	2507.995625594187	1
0	7324	2511.221858147765	0
0	7343	2514.839387240607	1
0	7346	2515.714913353818	0
0	7355	2519.624587863013	1
0	7357	2521.020460243742	2
0	7358	2523.315898808699	1
0	7363	2524.418016149526	0
0	7375	2527.463453108145	1
0	7377	2527.482496057107	2
0	7379	2529.426700890903	3
0	7383	2530.240168389172	4
0	7385	2530.43568923198	5
0	7389	2531.154337301271	6
0	7392	2535.167773171826	7
0	7393	2535.662061236687	6
0	7398	2536.064786525518	5
0	7403	2536.434697538004	4
0	7414	2538.58873173549	5
0	7415	2540.584724912213	4
0	7423	2540.890770776018	5
0	7425	2541.895934512624	4
0	7434	2544.809291660991	3
0	7442	2545.342994872637	2
0	7450	2548.461735545731	1
0	7456	2551.285384346377	2
0	7457	2551.317906683145	1
0	7464	2551.674231824414	2
0	7466	2552.208760879102	3
0	7470	2555.472824981203	2
0	7479	2559.265570137336	3
0	7481	2560.148566963137	4
0	7483	2560.459429921028	5
0	7486	2563.570375655802	4
0	7491	2564.32598537152	3
0	7499	2564.479817249859	4
0	7500	2564.652466055435	3
0	7506	2565.63578587832	2
0	7513	2566.594047492668	1
0	7520	2568.266658502808	2
0	7523	2570.763343182918	1
0	7528	2570.851576241656	0
0	7548	2576.243861380412	1
0	7550	2576.512745657669	2
0	7555	2578.208685439613	3
0	7557	2578.676442364874	4
0	7560	2579.863599308001	3
0	7566	2584.922486102422	2
0	7571	2585.454041247721	1
0	7580	2586.25928563545	0
0	7586	2586.537596268614	1
0	7588	2587.523796914997	0
0	7599	2588.077697819542	1
0	7600	2588.096381347329	0
0	7611	2589.488436175288	1
0	7613	2589.864523926584	2
0	7617	2593.894538470187	3
0	7618	2594.55815031937	2
0	7627	2595.085370534955	3
0	7628	2599.130436305259	2
0	7633	2600.720713435364	1
0	7639	2602.137561087321	0
0	7653	2605.783625952445	1
0	7655	2608.016921279289	2
0	7658	2610.872671133518	1
0	7666	2611.687128516211	0
0	7672	2612.610435664284	1
0	7674	2612.706077917597	2
0	7675	2613.220267526762	1
0	7683	2613.993838331177	2
0	7684	2614.874875129808	1
0	7690	2615.050261341384	2
0	7693	2616.681549463843	3
0	7694	2616.934619148526	2
0	7700	2618.163606944945	1
0	7707	2619.904180985613	2
0	7716	2622.772869949771	1
0	7721	2623.972838820645	0
0	7747	2631.941223926578	1
0	7751	2635.111204025478	2
0	7752	2635.117315007506	1
0	7759	2639.577070393126	2
0	7761	2641.879926829095	3
0	7762	2642.185965530647	2
0	7769	2642.537793439065	1
0	7775	2642.557642173414	2
0	7776	2642.825762785966	1
0	7785	2643.267594746024	0
0	7791	2645.72285936852	1
0	7793	2647.06971421513	0
0	7806	2649.526274404679	1
0	7816	2653.524318670257	0
0	7833	2655.022652475042	1
0	7835	2655.320378073587	2
0	7837	2655.431744673551	3
0	7839	2656.016574062763	4
0	7842	2657.035802428508	5
0	7844	2658.714285193574	4
0	7851	2659.464878329797	3
0	7858	2659.951166243493	2
0	7866	2667.568183111628	1
0	7875	2668.648548716788	0
0	7889	2673.73694659502	1
0	7891	2675.44791965901	0
0	7917	2677.650117713079	1
0	7920	2680.200477488439	0
0	7926	2682.047101680257	1
0	7928	2683.349204903845	0
0	7941	2686.595872935354	1
0	7943	2687.879530517965	2
0	7945	2687.915554341298	3
0	7946	2688.323681406295	2
0	7952	2690.633671987773	1
0	7965	2696.257156346027	2
0	7966	2698.087133071771	1
0	7973	2700.48332934523	0
0	8014	2712.484246038405	1
0	8018	2712.919171491943	2
0	8020	2713.994209943083	3
0	8022	2714.292187899398	4
0	8024	2714.457972256565	5
0	8025	2714.808778645691	4
0	8030	2715.213450064565	3
0	8035	2716.142070517257	2
0	8042	2718.448664203661	1
0	8048	2718.669662905087	2
0	8054	2723.538876544186	1
0	8060	2725.618222509312	0
0	8074	2726.077566658854	1
0	8076	2727.551044975083	2
0	8082	2733.459415934794	1
0	8087	2733.569417643171	0
0	8099	2738.523877510285	1
0	8102	2740.04890772074	0
0	8108	2740.432876448023	1
0	8110	2740.542446667984	2
0	8111	2742.101444536595	1
0	8121	2748.040692634751	0
0	8133	2751.284582254308	1
0	8134	2752.255035063972	0
0	8146	2754.304711574633	1
0	8147	2755.295139311279	0
0	8155	2755.728315679113	1
0	8157	2756.353895141764	2
0	8159	2758.076410860189	3
0	8162	2759.868482245439	4
0	8163	2763.610356207999	3
0	8168	2765.25417014048	2
0	8173	2765.274050849272	1
0	8179	2765.377718176576	2
0	8181	2766.035256460777	3
0	8187	2770.199326647011	2
0	8195	2770.981842961091	1
0	8201	2773.146128769933	0
0	8213	2774.121067625941	1
0	8215	2775.435044128734	0
0	8229	2778.727854159699	1
0	8231	2783.540579645299	2
0	8233	2786.580243398264	3
0	8235	2787.475248880907	4
0	8239	2790.781450353255	5
0	8244	2792.417045238986	4
0	8249	2794.016974492254	3
0	8255	2794.299142478087	4
0	8258	2794.842310073399	3
0	8271	2800.457409000769	2
0	8277	2801.598827805468	1
0	8284	2803.246401015777	2
0	8288	2804.400297442832	3
0	8292	2804.458972117915	4
0	8295	2805.932438767003	3
0	8304	2808.9062564918	4
0	8308	2816.263692078415	5
0	8310	2817.883776564271	6
0	8312	2818.458079686023	7
0	8314	2818.784746627042	8
0	8315	2819.599281769204	7
0	8320	2820.524801585862	6
0	8325	2820.667921248943	5
0	8333	2823.449623622098	6
0	8336	2824.000361889946	5
0	8341	2824.271347342654	4
0	8347	2824.511590033728	3
0	8352	2824.782627746003	2
0	8360	2828.674938738857	1
0	8366	2829.680731802141	0
0	8373	2830.286804781287	1
0	8375	2830.961458363003	2
0	8377	2831.671596488819	3
0	8380	2831.899280265652	4
0	8381	2832.184396800473	3
0	8387	2835.439111307586	2
0	8392	2837.484804453092	1
0	8399	2839.549998395573	2
0	8400	2840.546180247871	1
0	8413	2851.568019948134	2
0	8416	2854.42156626373	1
0	8421	2858.322938647621	0
0	8428	2860.189559392788	1
0	8429	2861.372648666568	0
0	8443	2865.634207628299	1
0	8449	2866.865180195631	2
0	8451	2867.468094070805	3
0	8452	2869.412239648013	2
0	8457	2870.150138315332	1
0	8466	2872.672980771678	2
0	8470	2874.990433529795	1
0	8477	2877.970993493623	2
0	8479	2878.522346050421	3
0	8480	2880.167909250927	2
0	8486	2885.721382590047	1
0	8492	2888.114452129835	0
0	8517	2891.594638981356	1
0	8522	2895.610354989435	0
0	8550	2901.894179587121	1
0	8556	2905.537849458551	2
0	8560	2907.533170608105	3
0	8563	2908.916196302504	2
0	8569	2910.234983008893	1
0	8574	2910.758325001557	0
0	8580	2911.07203827848	1
0	8585	2911.87114087614	0
0	8594	2914.790544833247	1
0	8596	2917.030333063193	2
0	8598	2918.873182034767	3
0	8601	2919.768014101593	2
0	8607	2922.905987697362	1
0	8612	2923.148273809933	0
0	8624	2925.025006435049	1
0	8626	2925.059013886307	2
0	8628	2925.675336361417	1
0	8635	2928.608960738624	0
0	8660	2935.875299990242	1
0	8661	2937.233292238723	0
0	8685	2948.659462583666	1
0	8689	2949.381787244654	2
0	8691	2949.939412611133	3
0	8693	2950.917774050093	4
0	8695	2951.389398601746	5
0	8696	2951.508825415941	4
0	8706	2955.92849545336	3
0	8712	2957.562408645144	2
0	8718	2957.709601056475	3
0	8723	2959.668786923447	4
0	8724	2960.472949648153	3
0	8731	2961.373319912669	4
0	8732	2961.708513810621	3
0	8738	2963.027174339452	2
0	8743	2963.190764688288	1
0	8751	2965.871049007696	0
0	8770	2968.150719375869	1
0	8775	2970.678402475952	0
0	8783	2972.501952580217	1
0	8785	2973.999683143867	0
0	8791	2974.940010944853	1
0	8792	2976.248815712424	0
0	8816	2983.465246365213	1
0	8819	2987.560908795164	0
0	8860	3000.038736599523	1
0	8862	3000.362617762758	2
0	8864	3000.825818479925	3
0	8867	3001.060321182027	2
0	8872	3002.302341916843	1
0	8877	3002.451741161379	0
0	8889	3004.227095062022	1
0	8895	3006.322061416771	0
0	8912	3010.415003979984	1
0	8913	3010.41861821218	0
0	8927	3013.551811958512	1
0	8938	3019.567438168852	0
0	8960	3021.829138405285	1
0	8966	3024.692621413722	0
0	8972	3025.227903223745	1
0	8973	3026.335212562212	0
0	9001	3030.03819954492	1
0	9002	3030.436480819107	0
0	9008	3030.742192553238	1
0	9009	3031.742040634423	0
0	9015	3032.534380920151	1
0	9016	3033.472142048593	0
0	9027	3036.405578023817	1
0	9028	3036.504329925806	0
0	9044	3046.05545915534	1
0	9048	3049.992061368521	2
0	9052	3054.215713184708	3
0	9054	3054.50344703674	4
0	9058	3058.193238057795	3
0	9063	3059.518389347459	2
0	9069	3060.87934885516	3
0	9075	3063.142609964178	4
0	9077	3063.543261542114	5
0	9078	3065.362456885848	4
0	9084	3065.75920990765	5
0	9085	3066.264823167819	4
0	9096	3071.974850319376	3
0	9102	3072.729050833355	2
0	9107	3072.982502462809	1
0	9114	3075.454094383698	0
0	9120	3076.00799099991	1
0	9122	3077.561459113921	0
0	9140	3078.460916789087	1
0	9141	3081.132300250461	0
0	9148	3082.40806762046	1
0	9150	3085.749817993213	2
0	9152	3086.067586228668	3
0	9154	3086.209239101581	4
0	9155	3086.344421012442	3
0	9162	3088.899800969571	2
0	9167	3089.802931484901	1
0	9174	3090.448293544146	0
0	9178	3090.851983530061	1
0	9180	3091.272507257183	2
0	9187	3094.166483548375	3
0	9190	3096.485026148626	2
0	9196	3096.95947955743	1
0	9203	3100.215514423092	2
0	9208	3101.873045624102	3
0	9209	3102.217025888156	2
0	9216	3104.781864031662	3
0	9218	3106.407088703136	4
0	9219	3107.078464756713	3
0	9225	3107.997301546438	2
0	9230	3108.184242996425	1
0	9234	3108.185614332097	2
0	9238	3109.373589972137	1
0	9245	3110.754883472208	0
0	9252	3111.497322226708	1
0	9253	3111.547269467266	0
0	9270	3116.487888161172	1
0	9273	3117.037447528031	0
0	9284	3117.85446036655	1
0	9292	3121.837980372764	2
0	9296	3123.927703987045	3
0	9297	3124.281080533052	2
0	9303	3126.857434291923	1
0	9309	3127.313755458379	2
0	9311	3129.847682557158	3
0	9315	3133.924519430842	2
0	9322	3134.635524228534	1
0	9330	3135.469622669241	0
0	9341	3136.024449607212	1
0	9343	3137.880398164849	0
0	9358	3140.003413272837	1
0	9361	3141.426497272275	0
0	9377	3146.649004675322	1
0	9379	3147.389899228924	2
0	9381	3148.569887296767	3
0	9383	3149.935301938771	4
0	9385	3151.560514418314	5
0	9387	3153.574167306566	6
0	9389	3154.979180350523	7
0	9390	3157.62048357933	6
0	9398	3160.402686722378	5
0	9404	3160.622847597427	6
0	9408	3161.950412467713	5
0	9415	3163.621348908057	6
0	9420	3165.180258200475	5
0	9425	3165.374693874033	4
0	9430	3167.596618110117	3
0	9436	3168.764024226479	4
0	9439	3170.895643121239	3
0	9449	3175.444387066504	2
0	9454	3175.884506512001	1
0	9461	3177.327658637578	2
0	9463	3178.032576803525	1
0	9468	3178.565701353299	0
0	9519	3194.912028180336	1
0	9523	3199.976134791193	2
0	9525	3201.185833434184	3
0	9526	3201.785869555525	2
0	9534	3203.62181010629	1
0	9542	3204.908112920459	2
0	9544	3205.049998311757	3
0	9546	3205.941343563097	2
0	9552	3208.254504101491	1
0	9560	3208.593265205274	2
0	9562	3208.771299493206	3
0	9563	3208.806511119125	2
0	9568	3209.601244358334	1
0	9578	3219.601399633509	0
0	9601	3226.065091803679	1
0	9603	3226.229052021439	2
0	9605	3231.388749051456	1
0	9610	3231.615681862583	0
0	9630	3238.658316130659	1
0	9632	3239.436231211029	2
0	9637	3243.118868869134	1
0	9643	3244.267340970583	2
0	9646	3245.363933383878	1
0	9652	3246.215644695905	2
0	9653	3247.082931011508	1
0	9659	3248.368300938531	2
0	9664	3252.129811664625	1
0	9671	3252.64732753834	2
0	9674	3253.904886736353	1
0	9681	3255.352825527793	2
0	9683	3258.552669483795	3
0	9685	3259.838017681781	4
0	9689	3260.732808193933	5
0	9691	3260.898630147779	6
0	9692	3262.483577814943	5
0	9698	3265.891528643501	4
0	9704	3267.801691564099	3
0	9711	3270.337395571529	4
0	9712	3271.808722368642	3
0	9720	3275.352349158648	4
0	9722	3275.405362130691	5
0	9723	3275.876144433813	4
0	9731	3278.04506676376	3
0	9739	3284.591539830311	2
0	9745	3285.857551535394	1
0	9756	3288.622707939713	2
0	9757	3290.25240902632	1
0	9763	3292.202438211666	0
0	9769	3292.646994869623	1
0	9777	3296.43528832772	2
0	9778	3296.81799581639	1
0	9783	3296.919172341961	0
0	9789	3297.187813033331	1
0	9791	3298.355478477785	0
0	9830	3305.420665148627	1
0	9835	3311.959359475344	0
0	9870	3320.657501463142	1
0	9872	3320.817168427141	2
0	9873	3321.657985573428	1
0	9881	3323.363060713017	2
0	9886	3327.165987501898	1
0	9891	3327.295624249796	0
0	9897	3327.593608327414	1
0	9901	3327.843195673865	2
0	9902	3327.861959508781	1
0	9908	3327.981722885294	0
0	9920	3330.566959524369	1
0	9922	3330.818466858669	2
0	9925	3334.190579987254	1
0	9932	3335.909456571814	2
0	9933	3336.393609310617	1
0	9939	3336.890908456381	2
0	9940	3337.245374354338	1
0	9946	3337.933254918499	2
0	9950	3339.419265178697	1
0	9956	3342.676134072974	0
0	9964	3342.966502290857	1
0	9968	3343.289521626701	2
0	9971	3344.153922054882	3
0	9973	3344.960927876559	4
0	9975	3348.038655146238	3
0	9980	3349.975458373239	2
0	9988	3351.579492675878	1
0	9993	3352.348345401168	0
0	10012	3356.755607160131	1
0	10014	3356.841296321722	2
0	10018	3357.92590838598	3
0	10021	3359.145845965612	4
0	10023	3360.932637083473	3
0	10028	3361.087969360284	2
0	10034	3363.1727622741	3
0	10036	3363.714818665016	4
0	10042	3366.920209187313	3
0	10052	3370.82436918929	2
0	10063	3376.968807156638	3
0	10065	3377.596960277753	4
0	10066	3378.051766173047	3
0	10071	3378.22536613024	2
0	10080	3381.256023921038	1
0	10087	3381.991339953571	0
0	10111	3390.764251203531	1
0	10112	3392.130445118145	0
0	10127	3394.734054946883	1
0	10130	3396.223966598518	0
0	10151	3405.372849768112	1
0	10156	3407.119632889284	0
0	10173	3408.814145603963	1
0	10175	3409.242642497142	2
0	10176	3409.533563825046	1
0	10181	3410.305844629466	0
0	10189	3412.721067782169	1
0	10191	3414.226477853447	2
0	10194	3416.663151571629	1
0	10203	3420.728376482257	2
0	10205	3420.994862973415	3
0	10207	3421.913240436763	4
0	10208	3424.11315721074	3
0	10214	3424.885575873538	2
0	10220	3426.56281565862	1
0	10226	3426.655836366935	2
0	10228	3428.011944142906	1
0	10233	3430.435050751193	0
0	10259	3434.850729419361	1
0	10262	3438.333410078815	0
0	10268	3438.48295968956	1
0	10279	3450.231364955375	2
0	10281	3454.669787481125	3
0	10282	3454.998735401158	2
0	10288	3455.257848808031	3
0	10290	3455.850388877334	4
0	10292	3456.680277688973	5
0	10296	3458.706263472341	4
0	10302	3459.212829459981	3
0	10309	3459.848200379348	4
0	10310	3461.65566828158	3
0	10315	3462.214385634297	2
0	10320	3462.305721598183	1
0	10326	3463.448040595209	0
0	10348	3466.633148875224	1
0	10349	3468.504249328217	0
0	10363	3471.924329696454	1
0	10370	3475.110249810426	2
0	10371	3478.150618009068	1
0	10377	3478.212435499386	2
0	10379	3478.33842055687	3
0	10382	3480.004004583793	2
0	10387	3480.904829461508	1
0	10393	3481.104698778613	2
0	10394	3481.537752797135	1
0	10401	3482.883505231586	0
0	10423	3489.606516662435	1
0	10426	3493.947104086863	0
0	10436	3500.709297329614	1
0	10442	3501.870702361879	2
0	10445	3502.847896471021	1
0	10453	3505.838698522204	2
0	10458	3508.460437357567	1
0	10466	3511.919919099246	2
0	10468	3511.978005096146	3
0	10470	3513.436402774441	2
0	10477	3514.077579897181	3
0	10479	3515.453604269298	4
0	10481	3515.704694343746	5
0	10482	3517.47343825323	4
0	10489	3523.559950820393	3
0	10494	3524.598159616221	2
0	10500	3524.982131076969	3
0	10504	3527.239364195755	2
0	10510	3528.128599295623	3
0	10513	3529.665657176904	4
0	10514	3530.867362265041	3
0	10519	3531.555359381405	2
0	10526	3537.324847588879	1
0	10532	3538.091456438222	0
0	10562	3544.618996982909	1
0	10564	3545.99765292954	2
0	10565	3546.210395619061	1
0	10572	3548.943218572651	2
0	10576	3550.667472194644	1
0	10581	3550.958373653445	0
0	10605	3557.830507622669	1
0	10606	3558.100828133011	0
0	10612	3558.199044663379	1
0	10616	3561.247541045503	0
0	10622	3561.504064248481	1
0	10623	3561.661820608121	0
0	10634	3562.459396822226	1
0	10638	3565.663844303467	2
0	10644	3570.168477116091	3
0	10646	3570.200293199241	4
0	10650	3572.080391659816	5
0	10652	3572.514171016463	6
0	10653	3572.801305177565	5
0	10659	3573.155602592882	4
0	10668	3576.265583096899	5
0	10672	3577.128398379319	6
0	10674	3577.546271902689	7
0	10675	3580.029015426357	6
0	10684	3583.14927014825	7
0	10685	3583.231181896048	6
0	10691	3585.136684140399	5
0	10697	3585.608886271045	6
0	10699	3586.011430007707	7
0	10701	3588.923881903976	6
0	10706	3589.01600416219	5
0	10711	3589.3284659706	4
0	10716	3591.18857957254	3
0	10724	3594.556173766467	2
0	10734	3596.63850794537	1
0	10739	3596.639908927336	0
0	10746	3599.220862851117	1
0	10749	3600.023153940767	2
0	10751	3601.494154788446	1
0	10756	3601.771472096076	0
0	10768	3602.470740459232	1
0	10769	3602.76052988184	0
0	10782	3604.242307546487	1
0	10786	3608.475517878583	2
0	10789	3609.694983268122	3
0	10790	3609.939603798428	2
0	10798	3612.883600792875	1
0	10805	3615.985072558256	0
0	10835	3627.61691360013	1
0	10837	3630.203439588225	2
0	10839	3630.672953114276	3
0	10841	3631.808762026602	4
0	10844	3633.91032614999	3
0	10850	3635.018365503989	2
0	10857	3637.246248065399	3
0	10861	3638.997659209135	4
0	10866	3642.060963706307	5
0	10867	3642.293624792467	4
0	10874	3646.069766616957	5
0	10875	3649.413850484875	4
0	10880	3651.775204501464	3
0	10885	3652.093887761252	2
0	10896	3653.739641133825	1
0	10901	3655.251792589629	0
0	10928	3660.577064060791	1
0	10933	3661.225270974398	0
0	10961	3669.187069199721	1
0	10962	3669.719381250052	0
0	10997	3687.349773759428	1
0	11000	3688.553360027782	0
0	11024	3697.153578451464	1
0	11025	3697.621528739461	0
0	11031	3698.110492006017	1
0	11034	3699.376409170625	2
0	11035	3700.999252916301	1
0	11040	3702.059988606045	0
0	11056	3707.977188698805	1
0	11059	3708.579190051436	0
0	11065	3708.806611111835	1
0	11067	3709.214460621513	2
0	11068	3709.409344406956	1
0	11074	3709.416191934864	2
0	11077	3710.889803130649	3
0	11082	3713.148132462556	2
0	11087	3714.420272304466	1
0	11094	3720.313632428481	0
0	11100	3720.835160386394	1
0	11104	3722.37751738967	2
0	11107	3722.930716089064	3
0	11109	3723.022405173859	4
0	11110	3724.118711253187	3
0	11115	3724.345296865229	2
0	11120	3726.003124868643	1
0	11125	3726.020821924075	0
0	11129	3726.119360939892	1
0	11132	3726.356418526279	0
0	11151	3731.279170911141	1
0	11154	3733.41649593365	2
0	11156	3734.181701736838	3
0	11157	3734.531159016584	2
0	11162	3735.462465007333	1
0	11168	3735.728032651691	2
0	11169	3736.103039516067	1
0	11174	3736.546840110533	0
0	11187	3741.182937958927	1
0	11189	3741.414515547247	0
0	11195	3743.238100768468	1
0	11197	3743.86970634048	0
0	11224	3749.803302711097	1
0	11226	3750.482451762335	2
0	11232	3753.050320361881	3
0	11235	3754.001497011596	2
0	11246	3756.841878668737	3
0	11248	3757.314379529038	4
0	11254	3758.664802555579	5
0	11256	3759.847546310769	6
0	11257	3760.082915571958	5
0	11263	3760.370007122724	6
0	11273	3767.984324521552	5
0	11281	3771.533583863407	4
0	11288	3772.645594554476	3
0	11295	3776.310636878501	2
0	11301	3777.935606491169	3
0	11303	3778.002193194874	4
0	11305	3778.47762908074	5
0	11306	3781.119233680829	4
0	11312	3783.530934705119	5
0	11313	3784.048060632015	4
0	11318	3784.521619319233	3
0	11322	3784.731635944352	4
0	11329	3786.791324208036	5
0	11330	3787.641401058316	4
0	11337	3788.183955319518	3
0	11341	3789.426899620246	4
0	11344	3790.209025864998	3
0	11350	3790.732474180465	2
0	11356	3791.003283934158	3
0	11359	3794.01040405875	2
0	11364	3794.375942366812	1
0	11369	3795.740343046142	0
0	11375	3797.597610776614	1
0	11376	3798.051191203789	0
0	11382	3800.199571050159	1
0	11385	3801.390910074932	0
0	11394	3803.885725204552	1
0	11402	3813.421164301034	2
0	11405	3816.806880836445	1
0	11410	3817.19314619688	0
0	11423	3819.385658170222	1
0	11425	3822.006473133145	0
0	11434	3825.254554906265	1
0	11436	3826.433979180858	2
0	11438	3827.54206771338	3
0	11442	3830.543106935578	4
0	11444	3830.72103834353	5
0	11447	3831.985091405593	4
0	11452	3832.293015672041	3
0	11458	3833.457485513731	4
0	11464	3836.02183928051	3
0	11469	3836.178405563719	2
0	11475	3837.783554195016	3
0	11478	3838.425982529959	2
0	11483	3838.532047902275	1
0	11489	3839.124824307033	2
0	11492	3839.927630836648	1
0	11500	3841.304974085582	0
0	11506	3841.648838256825	1
0	11508	3844.549987446645	2
0	11510	3845.74797784795	3
0	11512	3846.950441305784	4
0	11513	3847.946405426041	3
0	11519	3849.188510560999	4
0	11521	3849.329186528437	3
0	11528	3851.812023351652	2
0	11533	3853.470307221569	1
0	11539	3855.965130651635	0
0	11558	3859.643147169565	1
0	11560	3860.681637932835	0
0	11566	3863.025565237255	1
0	11567	3863.578873951393	0
0	11573	3864.031296552485	1
0	11577	3864.588853648035	2
0	11579	3865.509680251382	1
0	11584	3868.049564185824	0
0	11622	3881.031794610419	1
0	11625	3887.112782024085	2
0	11627	3889.896787680908	3
0	11628	3891.608993148344	2
0	11635	3893.56201366005	1
0	11642	3894.087858189211	0
0	11670	3902.072373709395	1
0	11671	3902.539165744506	0
0	11677	3903.493877911178	1
0	11681	3904.203649480718	0
0	11705	3910.732291730484	1
0	11708	3915.669462530425	0
0	11714	3915.736064472387	1
0	11716	3916.335785278058	0
0	11736	3922.575785502398	1
0	11738	3923.458933971045	2
0	11741	3927.822294465181	1
0	11748	3929.005030829695	2
0	11749	3930.026860856972	1
0	11754	3931.336871892523	0
0	11760	3931.533356222184	1
0	11761	3932.844044300983	0
0	11767	3935.224604320967	1
0	11769	3935.818987578528	0
0	11782	3938.269477599673	1
0	11784	3938.708910386189	2
0	11787	3939.341486731448	1
0	11794	3941.613196743573	0
0	11805	3946.886292902115	1
0	11807	3948.696370097291	2
0	11808	3950.676091826162	1
0	11812	3952.525739961615	2
0	11814	3953.191609720458	3
0	11818	3954.111657128064	4
0	11819	3954.23382532104	3
0	11823	3954.317102794588	4
0	11825	3958.307329060263	5
0	11827	3958.324587671409	6
0	11834	3961.203707674629	5
0	11839	3962.156946838944	4
0	11844	3962.176096705604	3
0	11850	3962.593569234035	4
0	11854	3964.558693601476	3
0	11860	3967.076167683302	2
0	11868	3969.176442165997	3
0	11870	3970.707868990687	2
0	11876	3973.997091380328	1
0	11884	3975.353578373601	2
0	11885	3975.410020848387	1
0	11891	3980.187000969268	2
0	11894	3982.88845845368	1
0	11903	3987.903288312144	0
0	11929	3993.48050863281	1
0	11931	3994.437920424199	2
0	11934	3998.748418677229	1
0	11940	4000.90379749539	0
0	11954	4008.061040966187	1
0	11962	4011.462603879342	0
0	12002	4031.33757215599	1
0	12006	4032.636944755179	2
0	12009	4035.842773149902	1
0	12015	4036.900040269058	2
0	12018	4038.001145635718	3
0	12019	4039.519538281992	2
0	12024	4039.701079775487	1
0	12030	4040.364971830614	0
0	12036	4040.488431773701	1
0	12041	4045.806071882774	0
0	12049	4047.208532565314	1
0	12050	4050.726412903992	0
0	12105	4072.590767122883	1
0	12107	4075.96101847912	2
0	12110	4076.630128024632	1
0	12115	4076.939702629161	0
0	12126	4077.95230179168	1
0	12128	4079.771532809487	2
0	12130	4079.772083558928	3
0	12133	4082.771237648637	2
0	12139	4083.036742556442	3
0	12142	4084.903738548207	4
0	12143	4085.610482564174	3
0	12152	4089.159859740856	2
0	12159	4091.165592035194	3
0	12161	4092.224551323635	2
0	12167	4092.442444106832	1
0	12173	4095.515408935356	0
0	12184	4099.096732268357	1
0	12186	4102.104403529116	2
0	12187	4102.729214306132	1
0	12193	4106.286588393801	0
0	12200	4109.215612038274	1
0	12202	4110.220545910652	2
0	12205	4110.986889492865	1
0	12210	4111.585286064823	0
0	12233	4120.115269123984	1
0	12234	4121.258709163856	0
0	12249	4124.520703843031	1
0	12250	4126.114621134025	0
0	12256	4126.794646555731	1
0	12258	4127.538571519959	0
0	12278	4133.180981869384	1
0	12280	4134.321969665509	2
0	12286	4137.652537408735	3
0	12288	4139.707583954018	4
0	12290	4140.029490782345	5
0	12291	4140.169757897815	4
0	12298	4141.434472426622	5
0	12300	4144.601774403751	6
0	12301	4144.876903114651	5
0	12307	4146.790441444357	4
0	12314	4147.49894572381	5
0	12317	4149.439279471403	4
0	12322	4150.496559399269	3
0	12328	4151.17713748608	4
0	12332	4153.251646235351	3
0	12339	4155.718964924037	2
0	12345	4156.060827983371	3
0	12346	4157.095752255416	2
0	12352	4157.314564135037	3
0	12355	4158.04422262358	4
0	12359	4160.105840935801	3
0	12364	4160.128863080782	2
0	12370	4160.752432070915	1
0	12378	4162.63696647939	0
0	12397	4166.142429840761	1
0	12399	4168.334055397216	0
0	12430	4174.38258762264	1
0	12433	4176.782950814119	0
0	12460	4188.504661236992	1
0	12462	4189.105310232865	2
0	12464	4189.666673375103	3
0	12465	4190.087572927709	2
0	12470	4190.101284231441	1
0	12475	4190.382669119594	0
0	12501	4201.783108741154	1
0	12506	4203.502160662427	0
0	12512	4204.503147547859	1
0	12517	4207.437280383577	2
0	12520	4208.561519312788	3
0	12522	4209.449699434222	4
0	12524	4210.113380342942	5
0	12526	4210.22443449539	6
0	12528	4210.385770659133	7
0	12530	4212.200663771722	8
0	12535	4213.685900901889	7
0	12540	4216.820625241127	6
0	12547	4217.412120336641	7
0	12549	4217.690327633415	8
0	12551	4220.539759298009	7
0	12557	4221.544030183097	8
0	12562	4224.837670463067	9
0	12563	4226.003746580358	8
0	12570	4227.099182101931	9
0	12571	4228.067659647407	8
0	12579	4229.414513389564	9
0	12580	4231.234587441543	8
0	12586	4231.251438059296	9
0	12587	4231.4358935228	8
0	12593	4232.051437184532	7
0	12600	4233.085096443081	6
0	12606	4233.185044840001	7
0	12610	4234.507517040768	6
0	12616	4237.963621368357	5
0	12623	4239.62007592628	4
0	12634	4244.309930061435	5
0	12635	4244.754670056875	4
0	12640	4245.445017054012	3
0	12645	4245.621367974777	2
0	12652	4246.027653098106	3
0	12655	4247.214574976862	4
0	12656	4248.022501475517	3
0	12664	4251.070547191006	4
0	12665	4251.077341278796	3
0	12672	4254.152144033177	4
0	12673	4255.76729351541	3
0	12678	4255.886959601769	2
0	12683	4257.070782282973	1
0	12691	4257.863356878912	0
0	12698	4259.886138322684	1
0	12700	4260.959415706465	0
0	12722	4262.259341597181	1
0	12724	4262.965337782886	0
0	12737	4265.238410627844	1
0	12739	4265.921312184772	2
0	12742	4269.503125617817	1
0	12748	4269.841362386164	2
0	12750	4270.298705938138	3
0	12753	4271.689518032166	4
0	12754	4271.706347085909	3
0	12761	4273.232355747707	4
0	12763	4274.741075704559	5
0	12766	4280.633386932267	4
0	12774	4283.045233271207	3
0	12784	4287.151372356329	2
0	12793	4287.842751985783	1
0	12801	4292.411601476681	0
0	12814	4293.482992951343	1
0	12816	4295.25850015525	0
0	12837	4299.137874340802	1
0	12838	4299.866939183582	0
0	12845	4301.110602589346	1
0	12847	4301.413204547411	2
0	12849	4302.42057179947	3
0	12850	4302.474456331909	2
0	12857	4305.359261264018	1
0	12864	4306.770794370081	0
0	12871	4310.272876998586	1
0	12872	4310.480732442593	0
0	12886	4318.581057455589	1
0	12890	4320.957351226207	2
0	12892	4322.179305098092	1
0	12897	4322.778226561276	0
0	12915	4327.026201148532	1
0	12918	4328.435920410606	0
0	12938	4332.409979882152	1
0	12940	4334.080656339154	2
0	12943	4336.86214768141	1
0	12949	4338.668358289585	0
0	12963	4341.625235692266	1
0	12965	4342.035877592106	2
0	12972	4344.933887439998	1
0	12978	4346.180319673494	0
0	12984	4347.657711407926	1
0	12986	4347.817907674557	2
0	12987	4348.141524430053	1
0	12993	4348.18870123437	2
0	12999	4351.615643603688	1
0	13007	4354.788628767312	0
0	13034	4359.063549522527	1
0	13036	4359.622499769727	2
0	13042	4360.810978569579	3
0	13043	4361.126740761647	2
0	13050	4363.678236312701	1
0	13057	4364.714237732522	0
0	13091	4375.690128476246	1
0	13095	4382.796368117033	2
0	13097	4382.825926419691	3
0	13099	4383.848126284553	4
0	13101	4384.326698675754	5
0	13103	4384.696565007841	6
0	13104	4385.608475558496	5
0	13115	4388.48863697862	6
0	13116	4388.807173361729	5
0	13127	4394.422443234807	4
0	13135	4396.964992000817	3
0	13142	4398.152809189579	4
0	13145	4403.747181059237	3
0	13151	4403.927658874768	4
0	13152	4404.682270939904	3
0	13157	4405.484727275202	2
0	13162	4406.96261278556	1
0	13166	4407.460398134025	2
0	13168	4408.677361952415	3
0	13170	4408.956425174253	4
0	13172	4410.118213664196	5
0	13180	4412.526670001854	4
0	13185	4412.616470757737	3
0	13191	4413.218576002547	2
0	13197	4413.39594395444	3
0	13199	4413.583319738563	4
0	13201	4414.501693509896	3
0	13212	4417.299466752442	4
0	13214	4417.852431629683	3
0	13223	4421.548814224056	4
0	13224	4423.218959826108	3
0	13229	4424.103784649095	2
0	13237	4427.178280356382	1
0	13244	4428.395277404802	0
0	13262	4433.155735655667	1
0	13265	4435.155469798888	0
0	13272	4436.003047090553	1
0	13277	4436.492672663857	2
0	13281	4439.51063990951	3
0	13282	4440.116401035272	2
0	13288	4441.844458307381	3
0	13289	4441.864330486852	2
0	13301	4448.791735430273	3
0	13302	4451.643005051419	2
0	13308	4452.356169496067	3
0	13311	4453.388910114025	4
0	13312	4455.839107817229	3
0	13317	4456.441447048571	2
0	13323	4460.499503146366	1
0	13329	4461.147580049074	2
0	13333	4465.958145563783	1
0	13340	4466.221357523112	2
0	13343	4468.076336434143	1
0	13348	4468.118640624728	0
0	13354	4468.761532869445	1
0	13356	4468.953672986676	2
0	13360	4473.313902037228	1
0	13365	4475.530001858384	0
0	13376	4478.307215419967	1
0	13377	4478.356857801346	0
0	13384	4479.979532584187	1
0	13389	4486.127067429303	0
0	13401	4488.796246601292	1
0	13402	4488.884986401513	0
0	13416	4489.475799062923	1
0	13420	4492.47436223377	2
0	13421	4493.110107059597	1
0	13426	4493.182049874094	0
0	13438	4495.966592964054	1
0	13439	4496.058658965718	0
0	13446	4497.72140751337	1
0	13452	4500.90950712109	0
0	13459	4503.279490434576	1
0	13461	4503.96658155854	2
0	13463	4504.61374022897	1
0	13469	4505.393751638864	2
0	13471	4506.193618538388	3
0	13472	4506.200656485829	2
0	13481	4508.429000940977	1
0	13487	4509.050528268665	0
0	13501	4511.480528818496	1
0	13504	4513.345682086702	2
0	13507	4514.273454872884	1
0	13514	4517.358817038602	2
0	13517	4521.43785820519	1
0	13522	4523.09652200315	0
0	13533	4523.876842128391	1
0	13536	4525.413911465365	2
0	13537	4525.650957756159	1
0	13545	4530.636330993306	0
0	13559	4532.782634772364	1
0	13560	4534.754187252002	0
0	13578	4536.918252325209	1
0	13580	4537.418202299259	2
0	13585	4541.351288534015	3
0	13587	4541.672576800142	4
0	13588	4543.618835840382	3
0	13594	4544.455232774594	2
0	13599	4545.002986730018	1
0	13606	4545.900176974066	0
0	13614	4549.99261700135	1
0	13615	4551.65787749119	0
0	13631	4554.201752297492	1
0	13633	4556.222966945428	0
0	13666	4569.648140587042	1
0	13667	4572.040443854285	0
0	13673	4572.320721930709	1
0	13674	4572.62892031331	0
0	13680	4572.730440232228	1
0	13683	4574.897495213976	2
0	13686	4577.188332836711	3
0	13687	4577.700716974932	2
0	13692	4577.776680289191	1
0	13697	4578.923089526225	0
0	13709	4580.945974094257	1
0	13718	4584.18882553816	0
0	13728	4586.873778531889	1
0	13730	4587.149184133651	2
0	13732	4588.231994441005	3
0	13734	4590.441857022234	4
0	13737	4594.363342814287	3
0	13743	4594.584446998684	4
0	13746	4595.522511787613	3
0	13754	4598.307185916223	2
0	13759	4598.482702787377	1
0	13764	4598.524306215218	0
0	13797	4608.258976823184	1
0	13798	4608.801697256519	0
0	13818	4619.047502623534	1
0	13819	4619.051770289619	0
0	13831	4627.91956739988	1
0	13832	4628.531575118353	0
0	13842	4630.211031065978	1
0	13846	4633.367883516298	2
0	13849	4634.761981440258	1
0	13858	4635.907801437095	2
0	13859	4636.419058282427	1
0	13865	4636.870672538797	0
0	13871	4637.369014784637	1
0	13874	4638.340031817695	0
0	13886	4640.146337940398	1
0	13887	4642.120783634487	0
0	13894	4643.673349851565	1
0	13897	4644.776116899697	0
0	13904	4645.24413093243	1
0	13907	4647.406079448343	2
0	13909	4648.583741015402	3
0	13910	4649.914413930328	2
0	13915	4650.182339607653	1
0	13922	4652.589546809845	0
0	13936	4656.953177539684	1
0	13937	4657.46392189549	0
0	13959	4666.008125576273	1
0	13961	4667.10969311575	2
0	13964	4668.665868408109	1
0	13971	4668.827225044547	2
0	13972	4670.831283290408	1
0	13980	4673.280656480053	0
0	14003	4682.513661397424	1
0	14005	4683.938082723142	2
0	14007	4685.090593096518	1
0	14016	4690.69805159168	0
0	14030	4696.686422633605	1
0	14035	4699.298128522873	2
0	14037	4700.446549422556	3
0	14041	4703.240920967429	4
0	14042	4704.106321914769	3
0	14047	4704.617389270715	2
0	14055	4706.231864010882	1
0	14062	4708.151496915183	0
0	14072	4711.348468343306	1
0	14077	4716.617995039955	0
0	14088	4721.128025367044	1
0	14089	4722.732812415753	0
0	14115	4731.963590098705	1
0	14118	4732.826999272253	0
0	14150	4742.004610371071	1
0	14157	4742.548624582477	0
0	14168	4744.558435873717	1
0	14169	4744.857711365831	0
0	14193	4748.498240861795	1
0	14197	4751.252582251479	2
0	14198	4751.444638237232	1
0	14204	4751.738548055474	0
0	14218	4756.854013957601	1
0	14220	4757.193307186062	2
0	14223	4759.007609468976	1
0	14229	4760.321404260737	0
0	14237	4763.450610621786	1
0	14239	4764.309127340325	2
0	14240	4767.814283428436	1
0	14246	4768.165395396149	0
0	14277	4772.434492635824	1
0	14279	4772.958750375399	2
0	14283	4774.193438713832	3
0	14286	4775.939541976559	2
0	14295	4778.17191509367	1
0	14301	4779.898095901541	2
0	14303	4782.073312925901	1
0	14309	4782.258887911719	0
0	14321	4784.547112204186	1
0	14323	4786.123668930719	0
0	14340	4789.660573889424	1
0	14346	4794.063087706663	2
0	14347	4794.550131954525	1
0	14352	4796.363322288732	0
0	14370	4801.654395634358	1
0	14373	4801.880673821307	2
0	14374	4802.743440411482	1
0	14382	4808.607543332773	2
0	14383	4809.403105150185	1
0	14389	4809.467900336305	2
0	14392	4811.865351073824	3
0	14395	4815.264821698681	2
0	14401	4816.993285979119	1
0	14407	4819.37651822571	0
0	14415	4824.125327020018	1
0	14416	4824.899473251138	0
0	14433	4830.915271294411	1
0	14434	4831.066484448321	0
0	14440	4832.686303400929	1
0	14445	4835.84874785493	2
0	14446	4836.056293385555	1
0	14453	4836.490511914601	0
0	14479	4847.607743861341	1
0	14480	4847.680421187549	0
0	14497	4850.428077522901	1
0	14500	4851.351563243513	0
0	14506	4852.555669973842	1
0	14511	4853.997447854624	2
0	14514	4859.359120141991	1
0	14520	4861.121937104544	0
0	14526	4861.6446088952	1
0	14528	4861.823223242277	2
0	14530	4862.18531024133	3
0	14531	4862.31127401953	2
0	14540	4865.764623344952	1
0	14546	4866.341229007943	2
0	14548	4868.145295545661	3
0	14549	4868.176154276309	2
0	14554	4868.878862525669	1
0	14565	4873.331947718167	2
0	14567	4873.575169524356	3
0	14569	4873.662795958169	4
0	14571	4874.07691193905	5
0	14573	4874.568578685986	6
0	14575	4875.717529611287	7
0	14578	4876.528917043813	6
0	14586	4879.377639885672	5
0	14593	4880.876718453272	6
0	14595	4881.487463371461	7
0	14596	4883.564965883123	6
0	14602	4884.621960257925	5
0	14609	4885.067646878954	6
0	14610	4888.664359280915	5
0	14616	4889.4457322156	4
0	14621	4891.663606782364	3
0	14628	4892.066787442081	2
0	14632	4892.885547294858	3
0	14637	4897.990429431941	2
0	14642	4899.511916925621	1
0	14649	4901.703591606879	0
0	14675	4912.078861012457	1
0	14676	4913.055367947428	0
0	14691	4916.080449666431	1
0	14694	4921.053293907235	0
0	14702	4921.635498448349	1
0	14704	4925.986145202338	0
0	14711	4928.117051204909	1
0	14712	4929.677179894722	0
0	14729	4935.083564230432	1
0	14730	4935.128691446201	0
0	14751	4941.852604960778	1
0	14758	4945.871892110541	0
0	14770	4946.895849219668	1
0	14774	4948.25785023353	2
0	14775	4949.165839486247	1
0	14784	4951.006338350115	2
0	14785	4951.034055976716	1
0	14792	4951.766460956607	0
0	14832	4968.422250796475	1
0	14835	4969.189718047048	0
0	14875	4983.615420763812	1
0	14879	4984.151067937512	2
0	14881	4985.030891803896	3
0	14885	4987.009139049102	4
0	14887	4990.838367530993	5
0	14888	4991.081458946939	4
0	14897	4995.092311076852	3
0	14902	4995.534991182143	2
0	14908	4995.911957287243	3
0	14909	4997.948812394239	2
0	14914	4998.773640201742	1
0	14921	4999.391290177877	2
0	14923	4999.391673148602	3
0	14924	4999.928382986197	2
0	14929	5000.225880808437	1
0	14935	5002.25322198863	0
0	14946	5002.682551992721	1
0	14949	5003.166538888082	2
0	14954	5005.806414605056	1
0	14959	5006.092632177483	0
0	14972	5010.523318087318	1
0	14973	5011.755693008135	0
0	14979	5012.373193201979	1
0	14981	5012.600272058689	0
0	14987	5012.75101061927	1
0	14990	5013.357779365484	0
0	14997	5015.857001456057	1
0	14999	5016.633675776419	2
0	15000	5017.720058265027	1
0	15007	5020.762112265206	2
0	15008	5021.844012024907	1
0	15013	5021.983572149761	0
0	15021	5024.584668573982	1
0	15025	5026.448894996729	2
0	15026	5027.339961144979	1
0	15034	5028.78340967999	0
0	15064	5042.437272274634	1
0	15065	5042.973964181842	0
0	15072	5044.700403847746	1
0	15076	5045.287958756803	2
0	15080	5048.303333497458	3
0	15081	5049.207487912964	2
0	15086	5051.276213357308	1
0	15092	5051.28485149132	2
0	15097	5052.339555367235	3
0	15098	5052.844561620925	2
0	15104	5053.881585940826	3
0	15107	5056.154172825794	2
0	15114	5058.740377406036	3
0	15117	5060.175244888268	4
0	15118	5061.177898067161	3
0	15126	5064.97644496077	2
0	15135	5069.627883078641	1
0	15142	5072.16552396376	2
0	15143	5072.194693892747	1
0	15148	5072.799865967063	0
0	15170	5079.946297385298	1
0	15174	5083.640230881812	2
0	15175	5083.830167718956	1
0	15180	5083.87215882924	0
0	15190	5086.666245804223	1
0	15191	5088.5646947236	0
0	15201	5090.811457467925	1
0	15203	5092.955706775352	2
0	15204	5092.961048528	1
0	15212	5094.561289322493	0
0	15264	5110.171754789907	1
0	15266	5110.295536388866	2
0	15268	5111.03875027181	3
0	15269	5112.482980845204	2
0	15274	5112.583129615807	1
0	15280	5113.907703969085	0
0	15286	5114.773288027596	1
0	15293	5117.733626322837	0
0	15307	5120.719902994242	1
0	15315	5125.068583540532	0
0	15322	5125.839019557809	1
0	15325	5127.509689162915	0
0	15333	5129.523132300809	1
0	15335	5129.584303685352	2
0	15338	5132.569514681509	1
0	15344	5134.252392820427	0
0	15375	5143.07699964751	1
0	15377	5143.470222355381	2
0	15378	5145.292074958484	1
0	15385	5147.96912345328	2
0	15386	5149.819458516447	1
0	15392	5150.385351094354	2
0	15393	5150.796575634277	1
0	15399	5153.140366811997	0
0	15412	5156.192171226558	1
0	15414	5158.449262486566	2
0	15416	5160.143608245244	3
0	15417	5160.742792813836	2
0	15425	5163.839259275236	3
0	15428	5165.897731471348	2
0	15435	5168.087091414701	1
0	15440	5168.809256298016	0
0	15446	5169.295037615935	1
0	15448	5169.506198164228	2
0	15451	5172.166801881484	3
0	15452	5172.395669864453	2
0	15458	5173.21731039227	3
0	15461	5175.452049232761	4
0	15463	5178.491736307402	5
0	15464	5180.106338944002	4
0	15471	5183.870214347466	3
0	15480	5184.938428935601	4
0	15486	5189.731890756935	3
0	15492	5190.533179474259	4
0	15494	5191.353326180614	5
0	15495	5191.629267548404	4
0	15501	5191.809419863327	5
0	15504	5198.042139753932	4
0	15510	5201.993922195721	3
0	15518	5203.090247223957	2
0	15524	5203.449635847858	3
0	15527	5204.073060483215	4
0	15528	5206.405354351455	3
0	15535	5208.063641262361	2
0	15540	5208.205731728396	1
0	15552	5213.119507184161	0
0	15558	5213.655267928449	1
0	15564	5215.083860326879	2
0	15565	5215.128975319675	1
0	15570	5216.360662435427	0
0	15597	5223.053735855785	1
0	15599	5223.115218752	2
0	15604	5227.028736940847	3
0	15605	5227.054187489075	2
0	15610	5227.26730267204	1
0	15616	5227.918308896072	2
0	15619	5229.75583564515	3
0	15620	5230.269056389269	2
0	15628	5231.609771515895	1
0	15633	5231.822679459315	0
0	15637	5233.10946498958	1
0	15645	5235.458220785975	2
0	15648	5236.389248456466	3
0	15652	5238.093172572286	2
0	15658	5238.612516714233	1
0	15663	5242.089138352577	0
0	15674	5244.768804551332	1
0	15677	5245.838068758969	2
0	15678	5246.106859959502	1
0	15686	5247.510981907636	0
0	15706	5255.789892946493	1
0	15707	5256.431615904708	0
0	15748	5277.535030048022	1
0	15752	5277.987781976524	2
0	15754	5280.553201536568	3
0	15755	5281.056177394182	2
0	15761	5283.082941685549	1
0	15770	5287.60456866347	2
0	15772	5290.98963047021	3
0	15774	5291.125127151473	4
0	15777	5293.863743669673	3
0	15783	5295.595163892257	2
0	15792	5297.251738190468	3
0	15794	5297.308069713061	4
0	15799	5298.874385777961	3
0	15807	5302.00240008386	4
0	15809	5303.287568415468	3
0	15814	5303.835680836455	2
0	15819	5304.069059146918	1
0	15828	5306.201296033956	0
0	15834	5306.80833675156	1
0	15836	5307.40705491774	0
0	15862	5311.78747132859	1
0	15864	5311.93094619468	2
0	15865	5312.241143372123	1
0	15872	5314.771415468978	0
0	15878	5315.694318646073	1
0	15881	5318.637719653202	2
0	15882	5320.650411544118	1
0	15888	5321.216045363248	2
0	15889	5321.864404343437	1
0	15897	5322.563944022681	0
0	15903	5322.777823775653	1
0	15905	5324.026935712153	0
0	15932	5336.672176441615	1
0	15933	5339.883790327901	0
0	15939	5341.339743809571	1
0	15940	5341.556033558725	0
0	15951	5343.974427836902	1
0	15957	5349.569724612187	0
0	15963	5350.443117790445	1
0	15965	5352.188535266943	0
0	15980	5357.703366520577	1
0	15984	5359.257743069693	0
0	15994	5364.104104643239	1
0	16000	5368.043511266494	2
0	16002	5368.427433219238	3
0	16005	5369.663805776293	2
0	16012	5370.865008023725	3
0	16013	5370.872847992446	2
0	16018	5371.099073188825	1
0	16025	5371.978409389133	0
0	16033	5373.297507686358	1
0	16037	5375.565879735666	2
0	16039	5376.319291724228	1
0	16046	5378.252248738069	2
0	16048	5379.066163941281	3
0	16052	5386.343665141169	4
0	16053	5387.391869821102	3
0	16061	5388.574155180245	4
0	16066	5391.896066001535	5
0	16068	5392.036986127243	6
0	16069	5392.102405191299	5
0	16075	5392.185020829406	4
0	16084	5394.583091944085	5
0	16086	5395.600844884625	6
0	16090	5397.741510024412	7
0	16093	5399.193053569362	6
0	16098	5399.304136898799	5
0	16108	5402.450180399751	6
0	16109	5402.795911174859	5
0	16115	5403.454933978092	6
0	16117	5403.661478791342	5
0	16123	5405.900378786576	4
0	16132	5407.669075812116	3
0	16137	5407.869515056031	2
0	16142	5407.923625030205	1
0	16148	5409.530852149511	2
0	16151	5410.190313765728	1
0	16162	5416.9041897417	0
0	16197	5432.983470553636	1
0	16200	5435.927539225583	0
0	16211	5437.577780059979	1
0	16215	5439.257654143997	2
0	16219	5441.230120412809	1
0	16224	5441.581568011806	0
0	16230	5441.804804793569	1
0	16234	5443.057510749025	2
0	16236	5443.142716294254	3
0	16241	5445.23001450598	4
0	16242	5447.21813974569	3
0	16249	5451.104163787166	2
0	16258	5452.863438099322	3
0	16260	5452.958091002321	4
0	16266	5454.868640658886	5
0	16268	5455.297077978444	6
0	16269	5456.181691314703	5
0	16274	5456.372242142464	4
0	16280	5457.070550112575	5
0	16283	5457.900759030298	4
0	16288	5458.920736241108	3
0	16293	5460.493226478671	2
0	16299	5466.526895401414	1
0	16305	5467.578576881349	0
0	16312	5469.384727398094	1
0	16316	5470.136237090398	2
0	16320	5472.368983877448	3
0	16322	5472.812184431991	4
0	16325	5476.066684025617	3
0	16330	5476.633319974098	2
0	16339	5478.165268650857	3
0	16342	5480.770969429844	4
0	16344	5481.489739900639	5
0	16345	5482.360358437101	4
0	16350	5483.456231907837	3
0	16359	5484.91141135454	2
0	16365	5487.49948858435	3
0	16371	5488.43059248722	4
0	16373	5489.534241334959	5
0	16374	5489.825260623354	4
0	16380	5491.883086906238	3
0	16387	5492.725314476113	2
0	16393	5498.380803940713	1
0	16400	5506.132964061047	2
0	16401	5509.35961745767	1
0	16406	5509.539772489908	0
0	16412	5510.391705662847	1
0	16415	5511.699567702326	0
0	16421	5512.292428078848	1
0	16423	5513.205453502299	0
0	16441	5519.882676179831	1
0	16450	5522.757633512573	0
0	16476	5529.186835489298	1
0	16480	5530.024907181748	2
0	16481	5531.947802065261	1
0	16488	5532.654195104468	0
0	16500	5533.523831921489	1
0	16501	5534.438556793994	0
0	16522	5542.256006961254	1
0	16523	5542.776364586893	0
0	16548	5548.37771729125	1
0	16550	5548.890949415076	2
0	16551	5549.230782629257	1
0	16557	5551.022361534522	0
0	16571	5553.607075757679	1
0	16573	5556.405573376851	2
0	16577	5557.597488409613	3
0	16579	5557.917122308501	4
0	16582	5560.584243773025	3
0	16588	5563.276341188156	2
0	16594	5565.811572277252	1
0	16604	5569.703006247063	2
0	16605	5569.70308405705	1
0	16610	5569.745460675986	0
0	16621	5570.732080168013	1
0	16623	5570.843300500482	2
0	16626	5573.296882722138	3
0	16627	5574.156974725815	2
0	16633	5574.701114374088	1
0	16641	5576.119534218495	2
0	16643	5577.766966323741	1
0	16652	5578.046245644766	2
0	16656	5579.394982200748	1
0	16663	5581.675052065505	2
0	16664	5581.775139425162	1
0	16672	5584.414445315191	0
0	16685	5587.279185794255	1
0	16687	5587.340238241179	2
0	16689	5587.879477975678	3
0	16690	5589.298773191548	2
0	16696	5590.308431796706	1
0	16701	5590.739312941004	0
0	16712	5593.370112573503	1
0	16717	5597.969766313183	2
0	16718	5598.507698994704	1
0	16724	5598.747988388823	2
0	16726	5600.949953874509	1
0	16731	5601.215838587267	0
0	16758	5611.861212027077	1
0	16759	5611.949629283798	0
0	16771	5621.5696211166	1
[...]
5	83717	28164.814986720117	3.98776939133
5	83742	28171.545342696285	3.263664251892
5	83747	28171.796812841592	3.167871772124
5	83779	28184.945276913187	6.770534867099
5	83790	28185.360598774123	5.330839669651
5	83795	28186.488231703725	5.245115574731
5	83805	28191.187655393594	9.372940617003
5	83819	28199.003255371262	16.744860737764
5	83831	28204.490404861285	22.150391961965
5	83836	28204.779286689701	19.693833127768
5	83847	28211.442585198237	26.259220294981
5	83857	28214.326266628015	22.688456502326
5	83868	28224.057477365382	32.414948776724
5	83875	28224.750593518822	21.388012875129
5	83881	28225.826491814476	22.347332218577
5	83888	28226.108394584174	17.514112284643
5	83895	28226.542920106214	11.537227567847
5	83909	28231.981243017382	8.586424859053
5	83918	28238.640770886342	13.943221895349
5	83926	28245.643375480976	19.149120429227
5	83931	28246.111901550971	17.291522238507
5	83946	28251.797788730621	20.666086688729
5	83962	28258.004028725859	23.314838888498
5	83976	28262.007139017454	24.427213420265
5	83984	28266.466738948397	19.564958849985
5	83989	28267.407122969334	19.757964703463
5	84000	28268.498469933127	20.743373778136
5	84016	28277.287127326687	27.97880271873
5	84028	28279.326287848634	28.872511428677
5	84036	28281.522077174153	27.675011451959
5	84041	28281.720668599176	27.161640300836
5	84047	28282.409983634087	23.581813182229
5	84059	28284.12397870552	24.819611247802
5	84067	28285.516914893769	22.48051772625
5	84072	28285.860810712265	18.116591858977
5	84079	28287.106766649884	17.625008790454
5	84089	28291.030134151227	20.916260532481
5	84099	28294.652953012372	24.504480391574
5	84109	28296.266614302509	20.733776458216
5	84114	28296.880317905358	19.470111384769
5	84120	28298.439284205601	20.450823961005
5	84126	28300.347656540285	17.587707243303
5	84137	28304.757506519169	21.629973794925
5	84145	28308.197868194228	24.194579691721
5	84154	28309.181175008727	24.486466471168
5	84159	28309.583689206172	23.68510137309
5	84165	28310.186294117727	22.707999448693
5	84209	28323.470689140166	3.758346883733
5	84246	28342.081318917617	2.713944910549
5	84264	28344.52204020662	1.55511028323
5	84269	28344.563342705809	0.230613449648
5	84287	28354.290071566066	6.995231226644
5	84294	28355.889938838031	6.722131948655
5	84300	28358.061731765686	8.768249907242
5	84307	28358.54501479994	3.925747499994
5	84338	28369.825861081727	11.428760020899
5	84343	28370.179530602312	10.827415004055
5	84348	28371.4251279695	11.22444193603
5	84353	28371.445995490527	10.657464454228
5	84373	28377.313496178713	11.681166719625
5	84385	28380.776409529601	13.081059962739
5	84390	28381.543693348119	13.017704829156
5	84407	28388.308497531632	16.732472795425
5	84412	28388.699746255905	15.536280754129
5	84417	28390.5085615559	14.039245107479
5	84423	28391.514576166505	14.274845799636
5	84436	28395.259864694507	17.94846962351
5	84441	28396.503471616233	18.934489184216
5	84448	28397.971279438048	15.324692578264
5	84457	28402.23365854342	18.647662854473
5	84467	28406.676646139375	22.250779523828
5	84472	28406.678939017728	21.845573673302
5	84479	28408.304436949436	11.319279182236
5	84484	28410.538893284801	11.673065496984
5	84496	28415.697574992872	15.067426802602
5	84506	28419.305166354548	7.642471737999
5	84513	28420.062772497501	4.809552309086
5	84518	28420.562153664675	3.222652887937
5	84527	28423.533647709318	5.238436327823
5	84539	28429.368574111012	7.145026729874
5	84545	28429.682186959517	2.706010473122
5	84552	28431.645179211603	2.902731064506
5	84573	28439.621197643278	4.591858375172
5	84583	28443.998648594693	4.764098824413
5	84588	28444.893944540067	4.860757600808
5	84594	28446.018909807346	4.178363177012
5	84631	28458.304539446089	6.746992914658
5	84639	28461.127048790824	5.128249982427
5	84652	28464.209714745239	2.275254814103
5	84672	28474.435805964689	9.671601036457
5	84678	28476.598736108555	4.232824294759
5	84697	28489.802776998897	9.957323189046
5	84705	28492.580498819632	10.796760799577
5	84711	28493.416288391674	7.961171630556
5	84719	28494.558671194888	5.980410054489
5	84725	28497.43473053681	6.745103919198
5	84730	28498.370324264719	4.770652809588
5	84745	28501.843246429018	2.345011179865
5	84753	28502.727380697462	2.588221520481
5	84762	28506.146156535889	3.938156092121
5	84782	28510.855018504022	3.265750064663
5	84813	28526.302755982312	2.562942099505
5	84859	28547.900721891019	12.152127878901
5	84866	28548.809677804132	3.792426239334
5	84877	28554.474351694726	6.247018913352
5	84882	28554.938927200713	2.04764759067
5	84905	28566.219473611129	10.746329494818
5	84911	28566.291718047081	7.280262166928
5	84917	28570.342174882472	9.947226052703
5	84922	28571.401705633251	8.912492127831
5	84942	28579.45017444275	5.674232481284
5	84997	28596.991250382975	7.164212458792
5	85003	28597.998018274598	5.875068431436
5	85019	28603.188223674508	10.5273150957
5	85025	28605.354943547692	10.726569730264
5	85030	28606.983411165065	6.56003113771
5	85037	28614.8654380966	13.502478567481
5	85048	28619.141740269569	17.227718751315
5	85053	28619.166515489747	16.95089750607
5	85062	28626.274145321867	8.892758449715
5	85072	28628.298207308673	5.172771823548
5	85079	28630.409677814076	3.829817468287
5	85084	28631.447257791955	3.331420381456
5	85091	28632.223077212152	2.983001629852
5	85100	28634.760147400253	2.681099914138
5	85129	28644.869707612227	8.642358990656
5	85151	28653.141192364099	15.902097393556
5	85163	28655.267897838083	17.690606846433
5	85168	28655.585987096999	16.008556410837
5	85174	28656.023893044129	16.295705287635
5	85179	28656.122474359811	13.300735926161
5	85187	28658.44760100979	14.022528712937
5	85195	28660.605372014383	14.888168741915
5	85201	28663.014895888641	15.443519744835
5	85209	28668.920794624936	20.247809915509
5	85214	28669.622626705826	17.963708863588
5	85219	28670.063254824903	18.35358549499
5	85224	28670.203626873495	15.360667362509
5	85238	28688.539733702744	29.63660458497
5	85274	28703.958335161503	0.983057778817
5	85295	28713.773575255795	7.649676853157
5	85305	28718.706712741815	12.061177051077
5	85311	28720.22034366749	8.278606107321
5	85318	28725.399092382597	10.191069802563
5	85331	28727.679245845408	1.700714545774
5	85354	28738.508407888787	4.624129593517
5	85372	28744.882333192406	2.597884202842
5	85378	28748.143786109609	4.266438678457
5	85415	28770.70426548776	5.399999412086
5	85429	28778.818563152503	7.778531421576
5	85455	28790.064041447406	2.932527723379
5	85482	28799.684200823879	8.143596135093
5	85487	28802.571776345976	6.678437861028
5	85494	28804.663673680887	5.216195271119
5	85514	28810.812465387771	5.300392000225
5	85524	28815.394403374609	5.923081558221
5	85530	28816.430196462039	3.865780530428
5	85539	28820.28205283014	5.229855071304
5	85575	28835.384408506539	12.096929738705
5	85583	28837.564886869177	11.067212243896
5	85602	28847.124952108147	6.512822205351
5	85618	28851.812365196746	3.780440079673
5	85660	28869.633442984537	8.280530153395
5	85674	28875.582752772474	13.593151095201
5	85679	28875.672444537682	11.165410056415
5	85686	28876.461038413361	8.169450589632
5	85691	28877.594865817504	8.31791452679
5	85701	28880.845527453243	8.414085000022
5	85706	28882.197103057551	9.127672211278
5	85729	28889.05309417378	5.710260868215
5	85737	28890.376814292331	5.771718741717
5	85744	28892.585967425977	6.506796647453
5	85762	28899.817661958108	9.652533810927
5	85782	28908.445257169576	15.121857595728
5	85793	28910.324334903097	7.344826286642
5	85798	28910.558964534337	5.141660954752
5	85806	28912.540043669552	5.264575383424
5	85812	28913.085516392598	0.637435367324
5	85827	28916.509960833701	3.165719791221
5	85835	28918.308180643587	4.890470464548
5	85840	28919.251230386762	1.803720409033
5	85861	28924.981982418308	1.214594182818
5	85882	28927.995665817642	1.614842193183
5	85901	28933.89583315595	5.547867680257
5	85906	28934.030297344908	4.817062962392
5	85923	28938.875702979603	3.17258606326
5	85932	28940.456279214317	4.308347902902
5	85937	28940.500779577796	2.290823738547
5	85992	28960.894319261639	12.077396187199
5	86000	28965.776453957246	14.35477599931
5	86006	28968.121174652526	12.686475852227
5	86013	28969.12819414954	12.916876865838
5	86020	28969.343472242259	0.47953429306
5	86046	28977.242793424588	4.599547650383
5	86063	28980.921549072416	3.376278110646
5	86068	28981.167347877506	2.731285172251
5	86104	28994.873803959339	0.881608801228
5	86130	29005.903714308508	7.720156575764
5	86156	29019.384130165945	11.36162032096
5	86161	29020.211201878998	11.338166418609
5	86168	29020.992304006481	11.964783238247
5	86179	29023.492871571127	11.082123047049
5	86184	29024.09582315071	6.707255997126
5	86192	29026.202252873679	8.756253847881
5	86203	29029.948672936892	7.721465102972
5	86210	29030.998206094127	4.839834614873
5	86219	29034.281452214765	7.360557775362
5	86225	29037.658683979412	5.410833563082
5	86246	29045.192998232592	3.319212330285
5	86259	29053.394095469173	5.630401630625
5	86293	29061.786521186099	4.714416938139
5	86299	29065.565824579512	6.943091277303
5	86306	29066.464473703944	6.050336404979
5	86319	29076.364070177643	15.809817486961
5	86324	29076.378819956848	10.784243574409
5	86335	29084.495436181596	17.23326497795
5	86343	29087.376065371965	18.375477696177
5	86349	29089.308132088031	16.585860178219
5	86361	29094.524482777059	15.499873974014
5	86367	29098.196077928563	15.462780904858
5	86374	29099.803244915641	12.704822174032
5	86394	29112.381669765892	10.508901329754
5	86404	29113.937381744359	11.148278073425
5	86414	29116.094573325949	2.65115898137
5	86428	29121.231827300668	5.629745801017
5	86436	29122.567039940052	3.50765975046
5	86441	29123.486430156828	3.319092507853
5	86474	29133.705182101245	3.363258164485
5	86482	29135.455320379903	3.326663406028
5	86487	29136.420912307178	3.682967088719
5	86506	29141.852834945589	4.973815440934
5	86512	29142.093963464857	4.324311504645
5	86522	29153.551112425831	14.330494353958
5	86527	29153.866849698961	7.079273401897
5	86568	29173.964775801006	7.457551544339
5	86593	29180.400476567767	1.82151120046
5	86603	29185.951055797717	6.147220598588
5	86608	29186.845856927911	2.940051518945
5	86633	29195.088778468624	0.547091525994
5	86655	29208.409526166777	8.907926078351
5	86666	29209.346107376347	6.792498874552
5	86674	29213.08866519896	9.125654941899
5	86683	29217.7790962021	7.447166181605
5	86696	29225.729660595069	12.049343275727
5	86701	29226.331485174187	4.386463936797
5	86714	29232.601117131471	8.464812339078
5	86725	29236.009068238098	7.396870749018
5	86730	29236.10150470612	4.525187904996
5	86736	29237.685987294895	4.274153731537
5	86742	29238.338391712855	2.783803166657
5	86776	29249.714902411195	6.071048528276
5	86784	29250.477864395743	4.012116673762
5	86790	29253.117438070402	5.908561937437
5	86795	29253.210980379317	5.952513017577
5	86800	29253.357412981895	4.168460249275
5	86829	29260.375690101823	4.582219981966
5	86842	29263.017619091068	6.084969356275
5	86847	29264.245792363918	2.222230580555
5	86859	29268.411944853475	5.651702195511
5	86867	29270.087494277374	4.359717933642
5	86873	29270.232719437118	1.836494261836
5	86882	29273.611232330619	5.176255524321
5	86890	29275.40241923665	4.476643311526
5	86906	29282.011201757513	8.031616030621
5	86912	29282.965931198744	7.541292674039
5	86918	29283.570896891761	7.038470216356
5	86925	29284.773865568903	5.015359862484
5	86937	29291.218042772918	11.300724611429
5	86951	29294.089455557788	12.360079195516
5	86961	29295.581939787045	11.519964767665
5	86968	29297.187497655346	8.054100247248
5	86981	29305.807384681746	14.038535832861
5	86986	29307.594881886343	15.729452288181
5	86991	29309.531884322818	16.807792030483
5	86996	29310.654537706394	17.540623115459
5	87012	29316.811480369933	21.230805371324
5	87018	29318.018901523935	16.885807811652
5	87025	29318.213784689622	15.080007051741
5	87030	29318.484167523939	13.243449531075
5	87037	29320.807234649677	9.826085013826
5	87042	29321.089394096379	7.427369246234
5	87051	29322.280649458407	7.3675352437
5	87069	29324.065153303448	1.134320048512
5	87094	29334.093610959044	3.186313876738
5	87140	29359.097056992898	4.676716368849
5	87148	29361.396547164722	4.693642661366
5	87154	29361.972971176533	2.381392640945
5	87168	29364.104190303769	1.868683653807
5	87179	29366.158041181227	2.205182746088
5	87184	29366.656219701221	2.054109776119
5	87199	29370.778801045408	1.405536275378
5	87204	29371.725035247524	1.247482447637
5	87230	29379.925205509529	7.65660338975
5	87238	29382.382732501099	6.535649184783
5	87243	29383.11103457139	4.438217964324
5	87259	29386.500584779222	6.27834209843
5	87264	29386.559691112049	3.084157447117
5	87272	29393.341755226862	9.790796431394
5	87278	29397.451594281408	13.343585953946
5	87284	29398.369889319746	13.384103236399
5	87290	29402.775706490661	17.643064645575
5	87304	29405.191424588532	1.50188047575
5	87329	29411.676864381126	3.360866785841
5	87334	29412.09706854825	3.20472221128
5	87369	29429.371277767175	8.637648039706
5	87374	29429.463615932887	8.204429287049
5	87379	29430.8186269197	8.809396159219
5	87388	29434.073414881245	11.363154150497
5	87398	29439.208383917014	16.4955397332
5	87403	29440.148575101797	13.795728520816
5	87418	29444.547149221361	15.945843421555
5	87427	29447.755765482953	15.39271968961
5	87438	29451.586872482212	16.176945176322
5	87446	29452.27027647232	13.124543680918
5	87461	29455.170264119663	13.385341402814
5	87469	29458.692886993704	15.858965523948
5	87481	29462.677040086291	19.158701841485
5	87487	29463.598825936932	19.207620819417
5	87493	29464.564709877699	17.828741230043
5	87498	29464.962028745583	18.220483957364
5	87505	29469.015263866923	19.443500751627
5	87511	29471.375556132352	17.706504562991
5	87518	29474.315857057901	20.576175584715
5	87527	29479.514338351668	24.631612311688
5	87534	29482.838094555848	27.689062836043
5	87547	29487.045232057376	30.820744100208
5	87554	29489.667951091411	30.261059625006
5	87561	29490.634320708707	30.856502409156
5	87581	29502.86312488129	30.497223592251
5	87596	29507.503141152398	29.631413712089
5	87602	29508.665805039471	26.897430852421
5	87607	29509.430249305161	24.623096882885
5	87619	29513.029450262876	25.041205481698
5	87625	29515.021370028657	21.313183518985
5	87630	29515.998134500623	18.960159737399
5	87635	29516.452653319478	14.849121589879
5	87649	29520.994035926132	16.338124816526
5	87658	29521.521035207305	11.7340720494
5	87669	29526.547657121684	14.330131263693
5	87675	29528.577996365493	8.868617143494
5	87685	29532.779981311909	11.430063271375
5	87695	29535.015985051789	11.021531928469
5	87709	29542.438124117822	12.80243425337
5	87720	29546.949756902806	16.674226482939
5	87731	29551.805331442059	18.579704527025
5	87736	29552.349283453083	18.961847380914
5	87744	29554.279239990805	18.600579154173
5	87750	29556.475559318859	20.783016416629
5	87761	29560.75430076853	22.968044408749
5	87766	29561.097021368574	22.614458877131
5	87771	29561.184627408095	17.516230570454
5	87778	29565.168774857607	20.172609411167
5	87785	29567.654474620728	17.270045183558
5	87799	29572.674708386317	5.533344809656
5	87804	29573.27845171092	4.083343451859
5	87809	29574.04432221097	4.285185948878
5	87816	29574.871739882256	3.978665367378
5	87833	29578.376245393782	3.143347558893
5	87840	29580.287547045833	4.621817377437
5	87858	29586.080071697203	7.829311876733
5	87870	29590.137751767924	7.964038087539
5	87879	29594.460263405571	11.154266211496
5	87885	29595.125260684386	11.349531722155
5	87894	29597.245870343463	12.138526569658
5	87903	29600.969945678447	15.52711155506
5	87915	29605.542198648644	19.000651376756
5	87921	29608.11184741635	19.943311883743
5	87930	29608.848130378394	19.198215515079
5	87939	29612.229801211764	17.949241668729
5	87949	29618.784670036502	23.541641329407
5	87957	29620.411235559341	23.677301973816
5	87962	29621.173107013248	23.094441994641
5	87968	29622.103486533676	18.508907797703
5	87974	29625.574125714696	16.930997480045
5	87987	29629.555725344073	18.567201438584
5	87993	29631.246844408521	4.501843729621
5	87998	29631.384283365181	3.579183953201
5	88021	29646.77131377499	5.999588498376
5	88026	29646.877081545583	1.493824430346
5	88045	29651.526359219175	4.361053539403
5	88053	29653.541115846711	5.289944960281
5	88061	29655.514733042685	6.847905295386
5	88070	29656.912003673598	3.248049542163
5	88078	29657.831202498832	1.058202381065
5	88083	29658.056786665318	0.652655602774
5	88114	29668.758156249298	8.727014475863
5	88122	29669.457888938402	8.720601112643
5	88133	29673.892710487893	11.865701390618
5	88141	29678.630372369919	9.61171533141
5	88153	29681.611262819931	11.225714648414
5	88158	29683.378084929982	11.649321417973
5	88167	29687.317442624697	6.929200957918
5	88178	29690.304448749747	8.877647684194
5	88185	29693.111190692032	8.677379222886
5	88195	29697.103391813218	10.329771700961
5	88200	29697.811856914344	9.923944445449
5	88205	29697.991936961579	8.084068684078
5	88213	29700.932523998478	8.112630707256
5	88221	29704.821907599326	9.884941944284
5	88231	29705.422213174591	4.487878765938
5	88239	29708.958269260816	3.551197823445
5	88244	29711.312074527819	2.812165886965
5	88258	29713.916202079863	1.834986008609
5	88306	29730.36854822077	7.244169800432
5	88312	29731.877859340311	7.549002379718
5	88339	29739.264749329816	5.220580160811
5	88346	29741.862556902824	7.625532859938
5	88360	29748.434240480435	13.945587404342
5	88365	29748.809101140394	14.256901499249
5	88372	29749.20926559175	11.402316026188
5	88377	29749.557686062809	5.191136863653
5	88392	29754.438687645208	8.764688684919
5	88397	29754.768195869031	7.316938150997
5	88403	29759.424695814828	7.026101299018
5	88430	29767.56969104949	5.452040263667
5	88435	29767.75179854839	3.631940441482
5	88444	29770.442952507628	4.290580248789
5	88452	29772.81073937716	4.13940200219
5	88475	29782.423601731877	7.32084522935
5	88484	29784.554244436263	3.977269790742
5	88491	29785.374450831186	3.351721929609
5	88497	29788.67264462206	6.075109451617
5	88508	29790.236573500544	6.139272489148
5	88513	29791.46587938718	1.945832637932
5	88520	29791.761407165374	1.70424860606
5	88525	29791.839140248195	0.221480533172
5	88543	29798.3679119194	2.980058512885
5	88549	29802.651947579753	7.057986622775
5	88574	29812.398691437098	8.736269795343
5	88579	29812.599449891382	6.880537333971
5	88586	29813.452537665342	7.58915994793
5	88592	29814.504664749291	3.982390539697
5	88607	29817.124858338041	2.482813269495
5	88618	29825.309096627	8.600307688604
5	88627	29828.206178143469	4.060125837521
5	88634	29830.896399449865	4.410451501254
5	88640	29831.538107086376	3.910102709754
5	88656	29838.242132808964	5.090074458929
5	88681	29842.270232522961	3.931730171306
5	88687	29845.563331825273	7.222319941035
5	88692	29846.799178446478	8.24419392168
5	88697	29847.25492263512	8.601141287845
5	88729	29871.542247626145	11.121281196801
5	88735	29872.024103573472	7.694488743225
5	88761	29883.078195957396	4.572662942657
5	88768	29888.51954846932	7.822369307247
5	88776	29889.951395659684	8.772969419404
5	88781	29889.964841364435	8.373694493624
5	88808	29899.159123859786	3.60312399512
5	88814	29901.774378729533	4.998965951911
5	88830	29907.743189870902	4.994088799453
5	88845	29909.937118707884	1.737879470558
5	88851	29911.448409082443	2.879296965938
5	88878	29923.596968329489	8.663179013643
5	88892	29930.272070453936	14.857764711093
5	88898	29933.256388440824	9.895950912858
5	88906	29937.521911204141	13.43938927747
5	88912	29939.003606424081	11.822039923061
5	88917	29939.257091761963	9.693460318709
5	88946	29945.187944955192	3.207438882214
5	88951	29945.813674118641	2.032177729275
5	88984	29958.534250163692	11.488683311669
5	88992	29962.32749532212	14.832215414916
5	89000	29963.408001880547	12.543321079729
5	89022	29971.766760720403	8.324842050904
5	89028	29972.169655644196	7.447494145624
5	89037	29974.751270259318	8.688647328313
5	89046	29978.448460020443	5.05136131304
5	89061	29990.065160552752	12.316388082728
5	89067	29990.306743611309	8.041001614923
5	89072	29990.992954938397	3.892152523198
5	89093	29997.303635537575	3.124982917511
5	89099	29999.06092860422	4.572376095025

