version 2
run Third-n3-13-20191016-14:53:56-840
attr configname Third-n3
attr datetime 20191016-14:53:56
attr experiment Third-n3
attr inifile omnetpp.ini
attr iterationvars ""
attr iterationvarsf ""
attr measurement ""
attr network org.omnetpp.queueing.Pizza
attr processid 840
attr repetition 13
attr replication ""
attr resultdir results
attr runnumber 13
attr seedset 13
param **.PS.maxInventoriedPS 3
param **.U1.interArrivalTime exponential(4s)
param **.U2.interArrivalTime exponential(6s)
param **.PS.serviceTimeForInventoryU1 exponential(1.4s)
param **.PS.serviceTimeForInventoryU2 exponential(1.4s)
param **.PS.serviceTimeDirectU1 exponential(1.8s)
param **.PS.serviceTimeDirectU2 exponential(1.8s)
param **.PS.probabilityProducing 0.8
param **.CS.serviceTimeU1 exponential(2.3s)
param **.CS.serviceTimeU2 exponential(2.3s)

vector 0 Pizza.EntryQueueU1 queueLength:vector ETV
attr interpolationmode sample-hold
attr title "queue length, vector"
vector 1 Pizza.CS queueLength:vector ETV
attr interpolationmode sample-hold
attr title "queue length, vector"
vector 2 Pizza.EntryQueueU2 queueLength:vector ETV
attr interpolationmode sample-hold
attr title "queue length, vector"
vector 3 Pizza.sink lifeTime:vector ETV
attr interpolationmode none
attr title "lifetime of arrived jobs, vector"
attr unit s
vector 4 Pizza.sink lifeTimeU2:vector ETV
attr interpolationmode none
attr title "lifetime of arrived jobs, vector"
attr unit s
0	0	0	0
0	5	6.014953201419	1
0	14	12.970373519663	2
0	16	17.414309722575	1
0	21	18.37120545981	0
0	33	19.290304524335	1
0	38	21.156608337206	2
0	40	22.114540637106	1
0	47	22.340970680938	2
0	52	24.306659198473	1
0	57	25.767477574077	0
0	122	49.840835802453	1
0	126	50.962209155365	2
0	127	52.328373635142	1
0	133	53.42538401951	0
0	140	54.873920375547	1
0	142	55.155256166828	2
0	144	55.626759563851	3
0	147	56.829550210815	2
0	152	57.171063006773	1
0	159	60.053097386373	0
0	165	60.261292657569	1
0	166	60.503147315183	0
0	193	64.820342619692	1
0	194	65.392495907051	0
0	204	67.303607677085	1
0	207	72.816051134731	2
0	208	75.042401067017	1
0	216	80.664282388544	0
0	239	91.430206857738	1
0	240	93.505779483997	0
0	247	93.845183309659	1
0	248	96.959043482337	0
0	254	97.1836343685	1
0	255	97.403534487719	0
0	286	113.303262673677	1
0	288	114.558735526063	2
0	289	114.768962153549	1
0	295	116.589116696005	0
0	303	120.241212702748	1
0	305	121.305554990119	2
0	306	124.177947156831	1
0	311	124.761863329088	0
0	356	134.81756144451	1
0	367	144.550892184861	2
0	368	147.40955780418	1
0	373	147.460547465076	0
0	387	151.622697388532	1
0	388	152.361885361336	0
0	394	152.656377193949	1
0	397	153.723724333174	2
0	398	154.251089158808	1
0	406	156.453045522853	2
0	407	157.421707958217	1
0	413	158.461446312809	0
0	425	162.136212852912	1
0	428	162.840006825863	2
0	432	164.132321432956	3
0	434	165.159657046209	4
0	435	165.943968993073	3
0	440	166.28081011492	2
0	447	167.435659460293	1
0	455	167.475644613987	2
0	457	167.820979948415	3
0	462	170.261861749361	2
0	467	170.561979531538	1
0	471	170.647460897004	2
0	475	171.207564121716	3
0	476	175.342344827473	2
0	484	179.953884081087	1
0	489	184.02367545285	0
0	513	193.932908038939	1
0	514	194.368664195373	0
0	528	198.651801654023	1
0	529	199.93863812443	0
0	537	202.45589496938	1
0	540	203.767241192177	0
0	560	207.59879747764	1
0	561	207.934624439446	0
0	573	208.903701343372	1
0	575	209.293473703729	2
0	579	211.731079042493	3
0	580	214.470660968387	2
0	588	216.272044658335	3
0	590	216.998706760505	4
0	591	217.104287254506	3
0	596	217.274727076435	2
0	603	218.916260149997	1
0	608	219.179514364685	0
0	614	221.596184574178	1
0	615	222.040789318574	0
0	656	237.166902256196	1
0	657	238.014889844301	0
0	663	238.536372699566	1
0	665	238.738208312029	2
0	668	239.80283980376	3
0	670	241.090272633342	2
0	676	244.406188447015	1
0	681	245.6977663543	0
0	693	246.342412082743	1
0	695	250.346688569483	0
0	707	253.503486462417	1
0	708	253.684663157375	0
0	724	261.509610141053	1
0	726	261.627713021179	2
0	729	262.041711662687	1
0	734	263.52097281561	0
0	754	264.605898343405	1
0	756	266.429787060493	2
0	759	266.731070572391	1
0	772	269.583437377612	2
0	774	269.905115091395	3
0	775	270.015457571885	2
0	780	270.143955651469	1
0	785	270.245229167794	0
0	813	283.497059366071	1
0	818	286.347229353519	2
0	819	289.850846828719	1
0	826	292.721435983401	2
0	827	295.14607413684	1
0	833	295.43083894642	0
0	839	296.057622332384	1
0	841	296.860332821331	0
0	850	297.015232215023	1
0	852	298.081213530294	2
0	855	300.045433934452	1
0	864	302.241254673152	0
0	873	304.958818876381	1
0	877	306.941503298174	0
0	896	311.365208887408	1
0	898	312.479198517164	2
0	900	313.332700352323	3
0	904	314.62833958194	4
0	906	316.4130095591	5
0	910	321.74690658814	6
0	912	322.929414617174	7
0	914	323.054332070499	8
0	916	323.276342505217	9
0	920	325.225785619912	10
0	921	325.911248380841	9
0	927	326.895170161614	10
0	930	332.59310154094	9
0	939	335.013169485043	10
0	940	337.07089980746	9
0	946	338.274004620276	10
0	947	338.971745220468	9
0	953	339.22044150218	10
0	956	340.783832566114	11
0	960	343.184468875226	12
0	961	343.192001093826	11
0	968	344.024720074811	10
0	975	345.760008262789	9
0	982	346.22607011385	8
0	987	346.543612379233	7
0	995	348.383835495554	8
0	996	349.120391687447	7
0	1003	350.222670012159	6
0	1008	350.364602280691	5
0	1014	351.801705768522	6
0	1016	352.414827197628	7
0	1017	354.547766104976	6
0	1024	357.259748669922	7
0	1025	358.366714250986	6
0	1032	359.279020461669	7
0	1035	361.802436333127	6
0	1041	362.241865556393	5
0	1050	363.505726799445	4
0	1054	364.008694659498	5
0	1060	367.944626084477	6
0	1062	370.276776662429	5
0	1069	370.454303445921	6
0	1070	370.569921102185	5
0	1076	371.659069944273	6
0	1079	371.812008883651	7
0	1080	372.404152164124	6
0	1085	374.259259514004	5
0	1090	374.426224652804	4
0	1095	374.562681885805	3
0	1099	374.724714457897	4
0	1104	375.318203715124	5
0	1105	375.360997407649	4
0	1112	376.01186421906	5
0	1113	378.936912112628	4
0	1122	380.592184714234	5
0	1123	380.895752326481	4
0	1129	383.075004504033	5
0	1131	383.699275664937	6
0	1133	384.346397988071	7
0	1136	386.667617583922	6
0	1143	392.315175498385	7
0	1144	392.607016590718	6
0	1149	393.10603772729	5
0	1156	394.81913441941	6
0	1157	397.784524020921	5
0	1164	401.261471372373	6
0	1165	402.199662514211	5
0	1173	407.365181626735	4
0	1181	411.936576230173	3
0	1187	412.830117339591	4
0	1192	416.609725348285	3
0	1197	421.393360069472	2
0	1203	422.513846032559	1
0	1208	423.439093574024	0
0	1214	424.826884553815	1
0	1218	426.734832387792	2
0	1220	427.838416738783	3
0	1225	428.850689186268	4
0	1228	430.450939681654	5
0	1229	430.730048527931	4
0	1239	432.968446639666	5
0	1241	433.062651655558	6
0	1242	438.487946335151	5
0	1248	442.267601762921	6
0	1249	442.541099715198	5
0	1255	443.568931675827	6
0	1258	443.807660168099	5
0	1263	443.899273952939	4
0	1271	448.559503221498	3
0	1277	449.247794177849	4
0	1279	452.826464385288	5
0	1280	452.971698285453	4
0	1285	455.220285935553	3
0	1289	455.639072355221	4
0	1294	458.605729029936	3
0	1300	459.499577973911	4
0	1303	465.01000414991	3
0	1307	467.571951807998	4
0	1309	467.75001903962	5
0	1311	469.127125983118	6
0	1322	473.432708170255	7
0	1325	474.073062450689	6
0	1331	476.47034933517	5
0	1336	476.777360030491	4
0	1340	476.949221670702	5
0	1343	483.331523630548	4
0	1350	486.142074414758	3
0	1355	486.148899182827	2
0	1360	486.36232155925	1
0	1365	487.293621830917	0
0	1369	487.298620604729	1
0	1375	489.690137807213	0
0	1382	491.456861745604	1
0	1383	492.126682616882	0
0	1389	492.357929244717	1
0	1391	492.791882278209	0
0	1400	499.489503532441	1
0	1401	502.809063107617	0
0	1416	504.309266450736	1
0	1418	504.684565586232	2
0	1421	506.078735140095	3
0	1429	511.766349056669	4
0	1430	512.37867992597	3
0	1438	513.353961915087	2
0	1445	514.697241290177	3
0	1448	516.600732728008	2
0	1454	516.965369335509	3
0	1456	519.188419690057	2
0	1461	519.431763523535	1
0	1467	520.373297385126	2
0	1468	520.629925157994	1
0	1474	520.939710050782	2
0	1475	521.101007098585	1
0	1481	523.435840969807	2
0	1491	526.649718581169	3
0	1493	526.698300130764	4
0	1497	527.68693519812	5
0	1498	530.001565054681	4
0	1504	530.496123502032	3
0	1509	530.936163987123	2
0	1514	530.976289118746	1
0	1522	532.538475812162	2
0	1524	535.243648068949	1
0	1529	535.277218086121	0
0	1536	535.928853564525	1
0	1537	537.660756231487	0
0	1544	538.426980570604	1
0	1546	538.624115781232	2
0	1549	540.480556376163	3
0	1552	541.059387598485	2
0	1558	542.964062052361	1
0	1563	543.175802577198	0
0	1569	545.045262655498	1
0	1570	547.414040801717	0
0	1581	547.526230150491	1
0	1583	548.017314390794	0
0	1602	552.00664320528	1
0	1603	554.283267056129	0
0	1621	558.755039632907	1
0	1624	562.933761999748	0
0	1643	565.13230456854	1
0	1644	565.738385578587	0
0	1652	567.155017652822	1
0	1653	570.32059836797	0
0	1660	570.677658100759	1
0	1661	570.83338876114	0
0	1669	572.196596000971	1
0	1671	575.338820466287	0
0	1679	578.4724334916	1
0	1680	578.497067843547	0
0	1699	584.191054371336	1
0	1701	584.516767464707	2
0	1702	585.304151831536	1
0	1709	588.872073393087	2
0	1711	589.016774605061	3
0	1712	589.832522184926	2
0	1719	590.1261827734	3
0	1720	590.385709757983	2
0	1725	592.507609174107	1
0	1730	592.538860115799	0
0	1739	593.419168506855	1
0	1741	593.487823527274	2
0	1745	595.288449023437	3
0	1746	596.389167672074	2
0	1754	598.119617816112	1
0	1763	599.917125675453	2
0	1764	600.201330859484	1
0	1770	601.593272709386	2
0	1774	604.192750085824	3
0	1776	607.049454414804	4
0	1778	609.847342966875	5
0	1779	611.57446730731	4
0	1786	614.385573131612	3
0	1793	614.812697769005	2
0	1799	617.125151530753	1
0	1805	617.39114829393	0
0	1832	622.713256785443	1
0	1836	625.60662920912	2
0	1839	626.733466362115	1
0	1845	626.915719592792	2
0	1847	628.485791608302	1
0	1852	630.628294563056	0
0	1867	633.34697297349	1
0	1869	635.298525745082	0
0	1878	637.644891773559	1
0	1881	640.806721256631	0
0	1894	645.600064537124	1
0	1896	646.973091068117	2
0	1897	647.934855912802	1
0	1904	649.943388495989	0
0	1912	652.450544607149	1
0	1913	653.994474053539	0
0	1919	654.869414547014	1
0	1921	656.473309564435	0
0	1927	656.903725018477	1
0	1929	664.846611928947	0
0	1943	667.098071505485	1
0	1945	668.264999849261	2
0	1948	670.136643980985	1
0	1955	671.60240913599	0
0	1964	673.451515133596	1
0	1968	678.116631840695	0
0	1986	683.986316888645	1
0	1987	684.451259809464	0
0	2018	693.21044485917	1
0	2019	693.251367942806	0
0	2033	697.662462974735	1
0	2036	701.697769050081	0
0	2045	703.000669521833	1
0	2047	703.251805477581	2
0	2049	703.415354449051	3
0	2051	703.53843866909	4
0	2052	703.59611618672	3
0	2058	704.337726003645	2
0	2064	704.416072041891	3
0	2066	705.012994948767	2
0	2073	707.198530788895	3
0	2075	711.922957559374	4
0	2076	712.524081252502	3
0	2082	714.174722829734	2
0	2087	714.546448695627	1
0	2092	715.228724700053	0
0	2120	723.843483559627	1
0	2122	726.537264267408	0
0	2138	732.609980537979	1
0	2142	738.953443803171	2
0	2143	739.068848363139	1
0	2148	739.958049008944	0
0	2154	740.457645784639	1
0	2158	742.232996069079	0
0	2171	745.632172413109	1
0	2175	747.0887890931	0
0	2186	748.29102949829	1
0	2187	748.388509866198	0
0	2196	751.348551143932	1
0	2199	751.564044969702	0
0	2206	754.311847842646	1
0	2207	755.257044311035	0
0	2254	771.690837900898	1
0	2256	771.74894010837	2
0	2257	773.139747860683	1
0	2263	773.420587110664	2
0	2266	774.027241672877	3
0	2267	774.749231569733	2
0	2272	775.112198629437	1
0	2278	776.527593060941	2
0	2282	778.543010342988	1
0	2288	778.997424069964	2
0	2292	780.509129795988	1
0	2299	781.461255276689	2
0	2300	781.467667725344	1
0	2305	781.747915874262	0
0	2311	784.735050389131	1
0	2314	786.112387317095	0
0	2332	788.56203276836	1
0	2334	789.093390570426	2
0	2335	789.808661482794	1
0	2340	790.008957774794	0
0	2346	791.006215824123	1
0	2353	793.941989180172	2
0	2355	794.253929788108	3
0	2357	795.415394488757	2
0	2362	795.651548431644	1
0	2370	799.65555869419	2
0	2372	800.386012704512	1
0	2378	800.894143388522	2
0	2381	802.050762704294	3
0	2382	807.599132365459	2
0	2387	808.300950654951	1
0	2396	810.312856843352	0
0	2408	812.667718573457	1
0	2409	812.976012528218	0
0	2417	814.515067917813	1
0	2422	816.617277581729	2
0	2424	816.840736171254	3
0	2427	824.418893536532	2
0	2432	825.290294390263	1
0	2438	826.991523202845	2
0	2443	834.090100616612	1
0	2448	834.239949726428	0
0	2457	835.809524468889	1
0	2459	837.147688075238	2
0	2461	838.690750394698	3
0	2462	839.698735385046	2
0	2468	841.454528994811	3
0	2469	842.106460264095	2
0	2475	842.253349541974	3
0	2477	842.555538096797	4
0	2479	843.491874733795	5
0	2480	844.777614344753	4
0	2486	846.188381635518	3
0	2493	847.402375737556	2
0	2499	851.688401307428	1
0	2505	854.68146322507	0
0	2519	855.422975586457	1
0	2520	855.872459434891	0
0	2549	859.344098626821	1
0	2550	859.67717812604	0
0	2559	860.189764205186	1
0	2564	862.795677054569	2
0	2566	864.027498936053	1
0	2573	864.968146058323	0
0	2581	866.497389104933	1
0	2582	866.660275406852	0
0	2590	869.997979667233	1
0	2593	874.769878503358	0
0	2618	883.305641993968	1
0	2621	885.890302012618	0
0	2628	887.504206596793	1
0	2630	887.607602244389	2
0	2632	894.917108626581	3
0	2634	897.385717496532	4
0	2637	899.557920939536	3
0	2642	899.744312809358	2
0	2648	900.480254540117	1
0	2656	901.281292416111	2
0	2657	901.591867028399	1
0	2664	903.968740822776	0
0	2676	907.304610678825	1
0	2678	907.580380388449	2
0	2679	909.343364688048	1
0	2684	910.117847129051	0
0	2713	921.680101538989	1
0	2715	923.123085515605	2
0	2717	931.281833987742	3
0	2720	935.846714683778	2
0	2726	936.709423885585	1
0	2734	938.666367408434	0
0	2766	950.293453818208	1
0	2767	955.112277222135	0
0	2781	957.802077262885	1
0	2789	961.026503708692	2
0	2791	961.393325400628	3
0	2793	961.746638886498	4
0	2794	962.456003776359	3
0	2800	962.569596396628	4
0	2801	963.247996912278	3
0	2809	966.455136197711	2
0	2815	967.935495233683	3
0	2817	970.524229024147	2
0	2827	973.059122520988	3
0	2829	975.358279722687	4
0	2830	975.846590524913	3
0	2834	977.221024143415	4
0	2837	980.948150947853	3
0	2843	981.647218824668	4
0	2845	983.835209838293	3
0	2854	985.674322025313	4
0	2856	986.287350066615	3
0	2864	993.834975768475	2
0	2870	997.323557678401	1
0	2875	997.439738637657	0
0	2887	1001.419132570198	1
0	2889	1001.776095168693	2
0	2890	1001.967673436464	1
0	2895	1002.214553998508	0
0	2901	1002.720632105113	1
0	2904	1003.769814280425	0
0	2910	1005.070985318962	1
0	2911	1007.468545712791	0
0	2956	1021.532229969394	1
0	2958	1022.32925827739	2
0	2965	1025.605149798985	1
0	2972	1027.829147915741	2
0	2973	1027.847767991318	1
0	2978	1029.090907192276	0
0	2989	1029.955436556869	1
0	2992	1031.096122631087	0
0	3009	1035.648480231986	1
0	3011	1036.918931699008	2
0	3020	1043.019650933977	1
0	3026	1044.720577869599	2
0	3033	1047.062945520396	3
0	3035	1049.71611027207	4
0	3037	1049.854234229789	5
0	3040	1050.240851970077	6
0	3041	1050.271538981321	5
0	3049	1053.929119688524	6
0	3050	1056.629328591447	5
0	3056	1057.851269610853	4
0	3062	1058.248165849122	5
0	3064	1059.07155496823	6
0	3066	1059.177896453339	7
0	3067	1061.254654823514	6
0	3074	1062.86653253891	7
0	3075	1062.958843837426	6
0	3084	1064.718861848714	5
0	3092	1066.255327587303	6
0	3093	1066.469013473	5
0	3098	1067.75827886891	4
0	3103	1067.813928484384	3
0	3109	1067.86786714153	4
0	3113	1071.684898944871	5
0	3115	1072.163257098273	6
0	3116	1073.848706208816	5
0	3126	1077.886989009095	6
0	3127	1078.60057149128	5
0	3132	1079.920990182333	4
0	3137	1080.398655081853	3
0	3142	1080.844898287378	2
0	3149	1082.17384444553	1
0	3154	1085.391747543787	0
0	3166	1086.863274673885	1
0	3168	1089.750496669901	0
0	3174	1090.70805609247	1
0	3179	1092.643036131541	2
0	3183	1095.036830795973	1
0	3190	1097.264455883646	2
0	3192	1098.158546244327	3
0	3194	1098.450950248873	4
0	3195	1100.96832747154	3
0	3201	1101.304853518032	4
0	3202	1101.625755067943	3
0	3209	1104.244876810709	4
0	3210	1104.992417900572	3
0	3215	1106.463520781182	2
0	3221	1108.565966221865	1
0	3228	1109.471124432095	2
0	3229	1109.799298821585	1
0	3234	1109.814573342119	0
0	3240	1111.353442844695	1
0	3241	1112.395315326097	0
0	3263	1120.92580653343	1
0	3264	1126.402448193117	0
0	3276	1129.59104069163	1
0	3279	1130.084754028805	0
0	3293	1134.130966421536	1
0	3295	1137.436941078375	2
0	3298	1139.198512933793	1
0	3304	1143.89477538992	0
0	3332	1156.350405716476	1
0	3333	1156.998289887589	0
0	3339	1157.007437477938	1
0	3341	1158.376772384268	2
0	3344	1159.26901010845	3
0	3348	1160.373294935944	4
0	3349	1160.681505945502	3
0	3355	1161.710391411802	2
0	3365	1164.769576155256	3
0	3367	1165.382888633506	4
0	3371	1165.994811649938	5
0	3372	1166.740147983953	4
0	3378	1168.176275144024	5
0	3380	1168.876746896295	4
0	3386	1169.084649451871	5
0	3387	1169.212599342409	4
0	3393	1172.846862149574	3
0	3399	1174.844498344507	2
0	3406	1175.752054383545	1
0	3411	1175.9358647083	0
0	3435	1180.527736179613	1
0	3437	1183.633386468964	2
0	3441	1184.69348326823	3
0	3443	1184.799422809867	4
0	3446	1185.971978529764	3
0	3455	1188.884281811137	2
0	3464	1190.238320738571	3
0	3465	1190.815688642157	2
0	3472	1191.596312348813	3
0	3476	1194.521196857398	4
0	3478	1195.03529618502	5
0	3480	1195.957287431511	6
0	3484	1196.472037326958	7
0	3485	1196.63145307747	6
0	3491	1197.224711292061	7
0	3494	1198.55109093197	8
0	3495	1199.029645124021	7
0	3501	1200.055801258031	8
0	3509	1204.078907474293	9
0	3511	1205.081642101414	10
0	3512	1205.130849393718	9
0	3517	1205.272068851263	8
0	3522	1205.892260245377	7
0	3532	1207.918391576151	6
0	3537	1208.579211759509	5
0	3544	1208.87881284333	4
0	3550	1209.211704011385	5
0	3556	1211.323035298985	4
0	3567	1212.139547234961	5
0	3574	1216.314557224833	6
0	3575	1223.469332753755	5
0	3580	1225.368246278541	4
0	3586	1227.032097170146	3
0	3591	1229.631393877722	2
0	3597	1229.746150794235	3
0	3604	1233.082822157452	4
0	3605	1233.835307310757	3
0	3611	1234.096130662698	2
0	3618	1235.356372648047	3
0	3622	1239.163390884616	4
0	3624	1239.525911413295	5
0	3627	1241.599444947945	4
0	3635	1242.282342667326	5
0	3638	1243.759195419789	6
0	3641	1246.505024410094	5
0	3648	1249.242130783543	4
0	3661	1251.102829315535	3
0	3669	1255.384931252383	2
0	3676	1259.123488200067	1
0	3681	1259.364139557468	0
0	3687	1259.940238210946	1
0	3688	1259.990548968612	0
0	3700	1263.935895661351	1
0	3701	1265.274666530622	0
0	3705	1265.502529772781	1
0	3709	1268.394785406961	2
0	3710	1268.490185144142	1
0	3715	1272.447888290351	0
0	3728	1274.512328479534	1
0	3730	1276.313901199347	0
0	3758	1290.944287112027	1
0	3762	1291.810065664094	0
0	3769	1292.163559032633	1
0	3772	1292.699613141786	0
0	3785	1293.793914159108	1
0	3787	1294.15709978713	2
0	3791	1296.116180467519	3
0	3792	1298.268952364044	2
0	3798	1299.01513615504	3
0	3799	1299.698557788755	2
0	3804	1300.139543613844	1
0	3814	1304.365746218982	0
0	3823	1308.777060818081	1
0	3825	1310.390771943867	2
0	3826	1312.09778580724	1
0	3833	1313.399284696711	2
0	3834	1315.366125731877	1
0	3841	1320.849932723101	2
0	3842	1321.014861717154	1
0	3847	1321.132790907192	0
0	3866	1333.101681996395	1
0	3868	1334.593914176056	2
0	3874	1336.964802275281	3
0	3876	1337.909691116125	4
0	3880	1340.366486495355	5
0	3881	1340.964438837698	4
0	3888	1342.375790996672	5
0	3890	1343.258471861574	4
0	3895	1343.923923677692	3
0	3900	1345.410648273341	2
0	3907	1347.542710885963	1
0	3912	1347.741102952462	0
0	3934	1353.654384533696	1
0	3938	1354.546903653697	2
0	3940	1359.953360352614	3
0	3942	1362.090952038686	4
0	3944	1362.365469288269	5
0	3945	1362.478888939274	4
0	3950	1362.727126190083	3
0	3955	1363.294617169938	2
0	3961	1364.912845753267	3
0	3962	1366.329534636838	2
0	3971	1367.62688288693	3
0	3975	1369.924718863488	4
0	3977	1370.880594287923	5
0	3979	1375.220086859829	4
0	3985	1379.441624714632	5
0	3987	1382.175891134356	6
0	3990	1389.546689466415	5
0	3996	1389.729123541968	6
0	3999	1391.216746328145	5
0	4004	1393.643116366956	4
0	4010	1393.800095288984	5
0	4014	1396.026491407332	6
0	4017	1398.921771101442	5
0	4024	1400.896677838588	4
0	4029	1401.342965084037	3
0	4034	1401.819003344372	2
0	4041	1404.355291428239	1
0	4046	1404.784616079838	0
0	4070	1407.556264596813	1
0	4072	1407.903675797057	2
0	4073	1409.432604825912	1
0	4078	1409.972369057835	0
0	4086	1411.577387045117	1
0	4089	1413.042562912192	0
0	4103	1416.409949271501	1
0	4105	1418.480972747348	2
0	4106	1418.928768968376	1
0	4113	1419.270321494936	0
0	4152	1432.807754387681	1
0	4153	1433.464309701271	0
0	4168	1438.186275705137	1
0	4172	1438.542526733472	2
0	4173	1438.63422654307	1
0	4179	1438.744689882085	2
0	4182	1439.990883183618	3
0	4183	1440.023090787523	2
0	4188	1440.592191158649	1
0	4194	1441.247108105759	0
0	4231	1455.332708287512	1
0	4232	1455.544982260521	0
0	4252	1462.770244420532	1
0	4255	1464.491445613084	0
0	4271	1470.424790662112	1
0	4276	1475.057073084203	0
0	4295	1480.144791114722	1
0	4296	1480.362760222024	0
0	4305	1481.283252668777	1
0	4306	1481.29918487027	0
0	4319	1483.011391217208	1
0	4322	1488.435098074682	0
0	4363	1502.60170147742	1
0	4364	1504.073813692791	0
0	4394	1515.228700966095	1
0	4398	1517.567971149755	2
0	4400	1519.266389255388	3
0	4402	1519.86899111957	4
0	4404	1520.512672707048	5
0	4410	1522.595164388395	6
0	4411	1522.775310891076	5
0	4418	1525.08368722665	4
0	4423	1525.108896928727	3
0	4429	1525.79973211783	4
0	4431	1526.994479521232	3
0	4442	1528.296658953107	2
0	4447	1530.117023501682	1
0	4453	1530.795208241141	2
0	4456	1534.486197645333	1
0	4462	1535.697987987576	0
0	4468	1537.377488986824	1
0	4471	1538.263871465517	2
0	4473	1539.394392304616	3
0	4474	1539.630243753486	2
0	4482	1539.866349144755	1
0	4489	1544.356589581465	2
0	4491	1548.587028407539	3
0	4492	1549.256300820259	2
0	4499	1551.760189657876	1
0	4504	1552.206490678205	0
0	4518	1556.198195646813	1
0	4520	1556.596734555942	2
0	4521	1556.966841411038	1
0	4529	1561.671278548131	0
0	4543	1565.730903658622	1
0	4544	1565.775550476382	0
0	4551	1566.745402818422	1
0	4552	1570.455596517421	0
0	4562	1572.565807081017	1
0	4564	1572.774378484283	2
0	4572	1576.278431230633	3
0	4573	1576.855360724534	2
0	4580	1577.910731864301	3
0	4582	1579.515887965664	4
0	4584	1580.360349333052	5
0	4586	1580.58523014571	6
0	4588	1580.749756111114	7
0	4590	1582.052824828948	8
0	4591	1582.290543217942	7
0	4597	1582.855082479253	8
0	4599	1585.02622012802	7
0	4607	1586.39852057578	6
0	4613	1586.499680941618	7
0	4618	1588.354019470332	8
0	4620	1589.843268190463	9
0	4621	1590.780308944565	8
0	4630	1596.626872100456	7
0	4635	1598.50251752487	6
0	4641	1599.46073875501	5
0	4647	1600.671544014451	6
0	4650	1601.324286457227	5
0	4657	1602.837075468316	6
0	4660	1606.143495032249	5
0	4666	1606.185569296239	6
0	4668	1606.621985331365	7
0	4669	1607.350478737789	6
0	4675	1607.721719599166	5
0	4684	1610.505220220079	6
0	4686	1610.599374724696	7
0	4688	1610.929618914224	6
0	4695	1614.992231400542	5
0	4701	1617.627796376035	4
0	4707	1617.940153002183	5
0	4709	1619.122414986531	4
0	4715	1619.533413912699	5
0	4718	1620.70798385048	6
0	4720	1621.160288700021	7
0	4721	1622.542061962861	6
0	4727	1624.16245707421	7
0	4728	1625.206178184727	6
0	4736	1626.796773972583	7
0	4737	1627.87228951352	6
0	4747	1636.803113089819	5
0	4752	1637.07752855936	4
0	4763	1640.088058238728	3
0	4769	1640.310625315816	2
0	4774	1641.074984040176	1
0	4780	1643.69972764688	0
0	4786	1644.016773756605	1
0	4790	1647.574643402204	0
0	4814	1652.882402867395	1
0	4816	1653.525584836496	2
0	4817	1654.038635794494	1
0	4822	1654.127209485545	0
0	4829	1655.427718103407	1
0	4833	1657.545673909371	0
0	4843	1659.621180138563	1
0	4847	1662.248773913689	2
0	4848	1662.652362638983	1
0	4853	1663.154960167217	0
0	4861	1663.843655822305	1
0	4862	1664.127310124171	0
0	4869	1664.492818529394	1
0	4870	1664.694083221308	0
0	4885	1668.443385885019	1
0	4890	1670.726063329216	0
0	4896	1671.007420536165	1
0	4897	1671.212089292954	0
0	4903	1671.880927097372	1
0	4904	1671.901966075569	0
0	4935	1684.094100563362	1
0	4936	1686.195008032605	0
0	4954	1691.367886987366	1
0	4955	1691.643118606544	0
0	4961	1691.699891539137	1
0	4962	1691.712643798701	0
0	4993	1697.801105732803	1
0	4994	1698.332967329459	0
0	5000	1698.768295674499	1
0	5002	1700.405806613282	2
0	5005	1701.026704016936	1
0	5011	1701.431148161673	2
0	5012	1702.005155773637	1
0	5020	1703.395620328073	2
0	5021	1704.118245320198	1
0	5026	1704.549647476577	0
0	5047	1713.485467926281	1
0	5048	1714.040259133382	0
0	5054	1714.193515421799	1
0	5058	1716.16100042817	2
0	5059	1716.542684426069	1
0	5065	1716.745927292953	2
0	5067	1716.779461181687	3
0	5069	1716.970163245591	4
0	5070	1717.529747609688	3
0	5077	1719.002758714475	4
0	5078	1720.01504595407	3
0	5084	1721.362399949569	2
0	5090	1723.299018190454	3
0	5094	1726.002696561227	2
0	5103	1728.433717028573	1
0	5108	1730.033318667051	0
0	5139	1742.049272556042	1
0	5140	1745.689865825482	0
0	5148	1750.181346986398	1
0	5149	1750.446751594401	0
0	5158	1756.705118887689	1
0	5159	1760.095193747251	0
0	5165	1760.998543943339	1
0	5166	1763.985404906054	0
0	5182	1768.475904059638	1
0	5186	1774.011007912615	2
0	5187	1774.07640543192	1
0	5196	1777.518333202848	2
0	5198	1779.934624499639	3
0	5201	1785.397905915465	2
0	5207	1786.466276877239	3
0	5215	1789.141813873341	4
0	5216	1792.203088150287	3
0	5221	1792.211442767634	2
0	5229	1795.682520987182	3
0	5230	1796.87449315516	2
0	5236	1800.031847248257	3
0	5238	1800.931696609545	4
0	5240	1804.228633393	5
0	5243	1805.371565306407	4
0	5248	1807.355776841101	3
0	5254	1807.859997025419	2
0	5263	1810.472263137441	1
0	5267	1810.956282125206	2
0	5269	1813.689701297365	3
0	5273	1814.745755685131	2
0	5279	1814.898829484587	3
0	5282	1816.805650662392	2
0	5289	1820.110188505064	1
0	5294	1822.860475446521	0
0	5329	1834.378426427789	1
0	5330	1834.895920713492	0
0	5341	1836.483894236537	1
0	5342	1838.121135944924	0
0	5350	1840.331579087421	1
0	5352	1841.982542766622	0
0	5363	1845.486150065627	1
0	5364	1846.551985932677	0
0	5370	1846.744380103189	1
0	5375	1849.265836986356	0
0	5388	1849.552333989517	1
0	5394	1851.05187394696	2
0	5398	1853.163617049373	1
0	5403	1853.75889265902	0
0	5423	1855.282406079369	1
0	5424	1855.410308766682	0
0	5449	1860.859591044432	1
0	5450	1861.200175376443	0
0	5457	1862.590668756096	1
0	5458	1864.24308037949	0
0	5479	1869.913409173697	1
0	5481	1873.827094712865	2
0	5484	1875.306317764911	1
0	5490	1876.475651878607	2
0	5492	1876.526718364176	3
0	5496	1877.768138547615	4
0	5497	1877.770250695236	3
0	5504	1878.628244516881	2
0	5510	1879.100208041241	3
0	5511	1880.655905196606	2
0	5516	1880.951336729227	1
0	5523	1882.244986506768	0
0	5558	1891.37799969293	1
0	5562	1893.717450270994	2
0	5563	1897.873051162993	1
0	5568	1898.550556171546	0
0	5581	1902.211934991481	1
0	5582	1902.665314752963	0
0	5591	1903.843544842684	1
0	5592	1904.047924165761	0
0	5604	1906.013728011851	1
0	5608	1907.436897794682	2
0	5609	1907.530039997264	1
0	5614	1908.091449859845	0
0	5651	1925.852289885284	1
0	5657	1928.046746164606	2
0	5659	1928.591365641041	3
0	5661	1928.814533222521	4
0	5663	1928.933952493816	5
0	5664	1929.010903963697	4
0	5669	1929.376798848615	3
0	5678	1931.005754378167	4
0	5681	1933.343984554798	5
0	5682	1934.006803826119	4
0	5687	1935.644376962715	3
0	5694	1936.307094350962	4
0	5702	1940.706564787843	3
0	5707	1941.36584904751	2
0	5713	1941.650504254686	3
0	5714	1942.173591615068	2
0	5721	1943.945723317299	3
0	5723	1945.074152871251	2
0	5728	1946.065592034414	1
0	5732	1947.400565149061	2
0	5734	1948.538333540824	3
0	5736	1948.784192924425	4
0	5742	1950.661901113398	3
0	5755	1954.009390785431	4
0	5757	1954.163658808477	5
0	5758	1954.351387481867	4
0	5766	1955.579272674283	5
0	5769	1956.9545717239	6
0	5771	1957.741363519551	7
0	5775	1960.781185021056	8
0	5776	1961.315881695332	7
0	5783	1961.458382386777	8
0	5784	1965.813945014553	7
0	5791	1966.660587050141	8
0	5793	1966.911560211811	9
0	5794	1968.068895489743	8
0	5801	1970.229675154312	7
0	5806	1970.693313516111	6
0	5811	1971.065477941993	5
0	5818	1972.164052377777	4
0	5823	1972.400077772495	3
0	5828	1972.528832338126	2
0	5835	1973.369536262929	1
0	5841	1974.461372364123	2
0	5842	1974.483619759274	1
0	5849	1978.347507261395	2
0	5851	1978.385386298151	3
0	5853	1978.71665496289	4
0	5856	1979.811409042451	3
0	5864	1981.445204205705	2
0	5872	1983.026521466462	3
0	5875	1983.58108339891	2
0	5881	1984.999830888377	1
0	5887	1988.192710380064	0
0	5926	1995.050848430888	1
0	5928	1995.664263598797	2
0	5930	1995.982618692331	3
0	5934	1996.799227061764	4
0	5938	1998.487180978469	5
0	5939	1998.785471419833	4
0	5945	2001.580004523841	3
0	5953	2005.261556083403	2
0	5959	2007.999050655114	1
0	5964	2008.894295063733	0
0	5994	2017.77168426705	1
0	5995	2018.074085766056	0
0	6014	2021.706531648962	1
0	6016	2022.667523094904	2
0	6017	2023.320712687982	1
0	6023	2024.959532476916	0
0	6034	2027.156932231125	1
0	6038	2028.078054317277	2
0	6043	2032.111400893573	1
0	6051	2034.552315590922	0
0	6060	2037.26672661821	1
0	6066	2042.521055246422	2
0	6067	2044.590093422948	1
0	6073	2049.663876686929	0
0	6090	2053.353439493919	1
0	6091	2057.057149486312	0
0	6109	2059.661763475456	1
0	6111	2063.269659160077	2
0	6112	2066.169950710176	1
0	6118	2066.292162814956	0
0	6125	2069.549182084779	1
0	6132	2072.769363910324	0
0	6138	2073.007746145725	1
0	6145	2079.50610994808	2
0	6146	2080.013263069674	1
0	6151	2080.563677383395	0
0	6162	2084.137130241847	1
0	6164	2090.660263393843	0
0	6171	2091.930976168144	1
0	6173	2093.037032114617	2
0	6176	2096.926438745615	1
0	6183	2099.144749653195	0
0	6209	2114.805782716561	1
0	6213	2115.409271043415	2
0	6219	2117.703362432148	1
0	6225	2118.95907350796	2
0	6228	2119.917330212599	3
0	6231	2121.221830174047	2
0	6236	2122.925921472244	1
0	6241	2123.302537376576	0
0	6275	2135.177032112819	1
0	6277	2135.570845013738	2
0	6278	2135.997324712585	1
0	6283	2136.114254961301	0
0	6292	2138.234525365797	1
0	6295	2139.522490285689	0
0	6314	2148.45168071539	1
0	6316	2150.388561160437	2
0	6319	2155.661165195435	1
0	6325	2157.543511769759	2
0	6327	2158.261916934213	3
0	6329	2159.760545574493	2
0	6334	2160.003370651682	1
0	6339	2160.95011429257	0
0	6352	2163.910779281449	1
0	6355	2165.847441924689	2
0	6356	2166.485720286011	1
0	6362	2167.274549982966	0
0	6384	2178.939138154296	1
0	6388	2181.659281227191	2
0	6389	2182.235106024101	1
0	6398	2184.921467730161	2
0	6399	2185.75877776455	1
0	6405	2186.055571450736	2
0	6406	2186.305983654501	1
0	6414	2187.322170566728	2
0	6415	2188.857622418949	1
0	6422	2191.626462547351	0
0	6431	2192.149586405997	1
0	6439	2194.839216554921	2
0	6443	2198.501601935492	3
0	6447	2200.163512163135	4
0	6450	2205.865658276964	3
0	6455	2207.220923825585	2
0	6463	2208.189221553275	3
0	6465	2208.439260485477	4
0	6466	2208.559383810445	3
0	6474	2212.150805304889	2
0	6481	2212.455042588805	3
0	6482	2213.340390231536	2
0	6487	2213.490713259315	1
0	6493	2213.743146358196	2
0	6494	2214.258911159629	1
0	6501	2217.917077042249	2
0	6503	2218.0752328183	3
0	6504	2219.176563809987	2
0	6510	2219.423404423388	3
0	6512	2219.447830511196	4
0	6514	2222.113627409573	3
0	6520	2224.130969049833	2
0	6525	2224.371999321223	1
0	6529	2224.473953477043	2
0	6535	2229.89314675908	3
0	6538	2231.027271831005	2
0	6544	2232.017610401245	3
0	6546	2232.056976372555	4
0	6547	2232.087238803482	3
0	6557	2235.183766325633	4
0	6559	2236.820992974641	3
0	6564	2237.997203919616	2
0	6570	2238.934964088763	1
0	6575	2240.056020446828	0
0	6625	2255.879604977558	1
0	6627	2257.908966713781	2
0	6628	2259.060797164906	1
0	6636	2260.481557920235	2
0	6637	2262.208638672181	1
0	6642	2262.570253152151	0
0	6650	2264.577949222967	1
0	6651	2266.293574610958	0
0	6666	2268.71050722339	1
0	6667	2268.883814495173	0
0	6673	2269.56593998125	1
0	6676	2273.219220169842	2
0	6678	2273.376450056943	3
0	6681	2276.789193806423	2
0	6687	2277.371840783224	3
0	6689	2277.615206185927	4
0	6690	2277.869524140568	3
0	6696	2278.27959761523	4
0	6697	2278.443080686348	3
0	6705	2281.009629238095	2
0	6711	2282.422400128278	1
0	6717	2282.538584408278	2
0	6719	2284.881118262122	1
0	6727	2286.62429075743	0
0	6743	2288.523948024829	1
0	6746	2290.024603390361	2
0	6752	2294.687802843422	1
0	6757	2294.736052872403	0
0	6770	2300.378461304647	1
0	6774	2304.977847997828	2
0	6775	2305.695806453486	1
0	6782	2309.366602874961	2
0	6783	2312.421585687607	1
0	6799	2318.268375298249	0
0	6808	2318.531268098155	1
0	6810	2320.821361647221	2
0	6814	2325.083953407092	1
0	6821	2327.758412284016	0
0	6842	2332.201267985009	1
0	6844	2334.75976726438	2
0	6845	2335.717135871522	1
0	6852	2340.363255333159	2
0	6853	2340.590855436347	1
0	6860	2341.129116606536	2
0	6861	2342.057458490039	1
0	6869	2343.474915579458	0
0	6890	2357.306938732764	1
0	6895	2360.586395022718	0
0	6915	2367.090324896162	1
0	6916	2367.335577605764	0
0	6922	2367.775299457917	1
0	6923	2368.167249971621	0
0	6929	2368.308440541514	1
0	6931	2369.544676674008	2
0	6932	2369.834639411638	1
0	6939	2371.681566464544	0
0	6982	2385.419156189809	1
0	6984	2387.250214711373	2
0	6985	2387.416582719643	1
0	6991	2388.511740115387	0
0	7004	2390.976810270772	1
0	7006	2391.066379738533	0
0	7013	2391.796501964606	1
0	7016	2394.056653997013	0
0	7029	2396.551263188292	1
0	7030	2396.925771055398	0
0	7052	2400.266197506891	1
0	7054	2400.589961475197	0
0	7071	2404.034931235939	1
0	7074	2406.3394060285	2
0	7076	2406.935406758943	3
0	7077	2409.841848709282	2
0	7083	2410.562525918331	1
0	7088	2411.209696113971	0
0	7107	2415.931788347877	1
0	7111	2417.285849663347	2
0	7114	2418.377274844647	1
0	7119	2418.884418783629	0
0	7135	2422.37404376	1
0	7136	2422.433892367645	0
0	7143	2424.428657665414	1
0	7146	2425.821389251131	2
0	7147	2425.95644725948	1
0	7152	2426.066006465787	0
0	7166	2429.245006012584	1
0	7168	2433.971168440783	2
0	7170	2434.20430222051	3
0	7172	2435.04657320281	4
0	7177	2437.211758905346	3
0	7183	2439.281796087315	4
0	7185	2439.300061526025	5
0	7187	2439.915826334016	6
0	7189	2441.514805433111	5
0	7194	2442.74633901009	4
0	7200	2442.794312171066	5
0	7204	2444.866997491075	6
0	7207	2449.563469229115	5
0	7212	2450.001958998557	4
0	7217	2450.087782998815	3
0	7223	2450.214966383856	4
0	7227	2451.134008017006	5
0	7228	2451.810896111999	4
0	7235	2452.816204771757	3
0	7241	2453.322014605485	4
0	7244	2454.576224075714	5
0	7248	2455.409261723844	6
0	7249	2456.020082262644	5
0	7257	2459.231805173008	4
0	7264	2460.241827496514	3
0	7269	2460.632644414715	2
0	7276	2461.724023881339	1
0	7282	2464.028290821068	0
0	7288	2465.374385999859	1
0	7291	2466.814208278661	0
0	7309	2470.11226282239	1
0	7312	2471.836035126657	2
0	7314	2473.829377240914	3
0	7315	2477.525392608182	2
0	7320	2477.557773666892	1
0	7329	2479.426508536777	0
0	7353	2484.549246785139	1
0	7355	2485.440593098283	2
0	7356	2487.063730290064	1
0	7361	2487.085867268978	0
0	7374	2489.603506952677	1
0	7376	2491.863848248292	0
0	7404	2498.318431422178	1
0	7406	2498.552132096726	2
0	7407	2498.759328822694	1
0	7413	2499.351379266658	2
0	7415	2500.109570977254	3
0	7418	2500.807828520224	4
0	7420	2502.485132632884	5
0	7422	2502.540045668462	6
0	7425	2506.300866129834	5
0	7432	2508.441026558404	4
0	7438	2509.71849188252	3
0	7445	2510.747289617146	4
0	7446	2512.791492000337	3
0	7452	2513.908938967298	2
0	7458	2515.455157678925	1
0	7463	2515.739672901981	0
0	7484	2523.417665354111	1
0	7486	2528.55946144078	2
0	7490	2530.785991248809	3
0	7493	2533.309793456791	2
0	7498	2533.697013300805	1
0	7507	2537.4653201907	2
0	7509	2538.03454857102	3
0	7510	2538.620869538681	2
0	7516	2538.765894129638	3
0	7517	2539.656240431201	2
0	7524	2542.581340370717	3
0	7525	2544.224744772285	2
0	7531	2547.023395867337	1
0	7536	2548.220849452114	0
0	7568	2559.734711317369	1
0	7570	2560.20624354568	2
0	7573	2562.172243489499	1
0	7579	2562.418578953811	0
0	7591	2569.170226622312	1
0	7593	2569.43808471902	2
0	7595	2570.315748873376	3
0	7596	2574.76348951126	2
0	7602	2577.58378227527	1
0	7607	2577.623304990065	0
0	7616	2577.805939097817	1
0	7619	2579.58453279964	0
0	7634	2586.811062900763	1
0	7635	2587.110791741933	0
0	7648	2589.312453332067	1
0	7649	2590.791317193139	0
0	7656	2592.674862392943	1
0	7657	2592.714132640538	0
0	7692	2607.133032322506	1
0	7693	2607.274155591693	0
0	7720	2615.941197858617	1
0	7722	2616.941740330013	0
0	7734	2619.689465462449	1
0	7736	2620.845904609195	2
0	7737	2621.166359423727	1
0	7744	2623.666641283861	2
0	7745	2624.277095007967	1
0	7752	2628.84139167201	2
0	7754	2630.130389243096	3
0	7755	2630.377090964858	2
0	7760	2630.664217229699	1
0	7769	2638.537281698039	0
0	7798	2643.746929911049	1
0	7801	2647.659195217789	0
0	7823	2662.00112494436	1
0	7824	2662.549830344356	0
0	7853	2673.810106966781	1
0	7856	2675.471248750968	0
0	7875	2683.323110458954	1
0	7876	2683.456857489329	0
0	7891	2687.730830785078	1
0	7893	2689.060976638625	2
0	7899	2690.409707555241	3
0	7900	2693.27961163885	2
0	7905	2693.339920621321	1
0	7915	2695.996555770861	0
0	7927	2699.568338952539	1
0	7929	2699.936181613764	2
0	7930	2700.046485261923	1
0	7936	2701.139743370152	0
0	7947	2702.718497442375	1
0	7956	2711.58127151391	2
0	7957	2712.251323647703	1
0	7962	2712.484380632601	0
0	7982	2716.954674252434	1
0	7988	2720.507988633779	2
0	7990	2725.533042912899	3
0	7992	2725.90542062408	4
0	7996	2726.839973218617	5
0	7997	2729.181831684923	4
0	8004	2731.413419378732	5
0	8005	2736.167434086061	4
0	8010	2737.701592070915	3
0	8016	2740.462183938243	2
0	8022	2741.443778700215	1
0	8030	2743.101584036762	2
0	8037	2745.445570911418	3
0	8039	2745.735228542056	4
0	8040	2748.223011582156	3
0	8045	2748.671020840675	2
0	8052	2749.755136069387	3
0	8056	2753.40574351543	2
0	8063	2756.170170807105	3
0	8064	2756.360852467384	2
0	8073	2759.995532316108	3
0	8075	2762.062124771288	4
0	8077	2762.37901278879	5
0	8078	2764.464289709068	4
0	8084	2764.706881888387	5
0	8086	2764.737068532777	6
0	8094	2771.575066477616	5
0	8101	2772.617739750294	4
0	8109	2775.84067747621	3
0	8115	2778.310369396702	2
0	8124	2780.170851970912	1
0	8135	2785.216711840392	0
0	8175	2795.721783656596	1
0	8184	2801.529218327357	2
0	8186	2801.831591604972	3
0	8187	2808.677125407591	2
0	8192	2809.768229991728	1
0	8200	2811.815760114028	0
0	8210	2813.652278800187	1
0	8211	2813.754061204875	0
0	8250	2825.543962315484	1
0	8254	2828.103923145331	2
0	8255	2829.47583858873	1
0	8261	2830.998923734971	0
0	8273	2832.155384249701	1
0	8281	2836.53748471148	2
0	8282	2839.711176062283	1
0	8287	2840.939469940538	0
0	8306	2846.420761825533	1
0	8309	2847.911129542398	0
0	8318	2848.873358049554	1
0	8321	2850.529255581221	0
0	8334	2853.412193014203	1
0	8340	2855.829767336428	2
0	8341	2857.493005832465	1
0	8354	2860.007560745389	2
0	8355	2863.016728166034	1
0	8361	2866.92510990961	0
0	8376	2873.551769787991	1
0	8381	2877.406287264023	0
0	8425	2887.711588394936	1
0	8427	2887.874912540666	2
0	8431	2893.938864913034	3
0	8434	2897.967795809221	2
0	8439	2898.151424343964	1
0	8445	2899.28284689362	2
0	8451	2901.213444590692	1
0	8460	2901.514133124004	0
0	8466	2903.117098709595	1
0	8468	2903.758566875062	2
0	8469	2905.027122007532	1
0	8474	2905.558490518483	0
0	8478	2909.069615673584	1
0	8484	2913.763255685094	2
0	8485	2914.308257843001	1
0	8491	2914.44551239205	2
0	8496	2919.155326103528	3
0	8497	2919.981817839795	2
0	8502	2921.272367101861	1
0	8507	2921.652641749871	0
0	8536	2931.918834956132	1
0	8538	2932.412715263711	2
0	8545	2935.773408024557	3
0	8546	2936.921965743043	2
0	8553	2940.52781284104	3
0	8554	2943.184351721737	2
0	8560	2944.841099221591	1
0	8565	2945.214310683812	0
0	8595	2952.260031571652	1
0	8598	2957.923233658806	0
0	8613	2959.157165381796	1
0	8618	2964.231727641647	2
0	8619	2964.622976254977	1
0	8628	2967.230587743816	2
0	8630	2968.149347337228	3
0	8632	2969.50121234148	4
0	8634	2969.902680050763	5
0	8636	2970.367420112943	6
0	8642	2971.806274999126	7
0	8644	2976.592013988226	8
0	8646	2978.855774652259	9
0	8648	2978.936360820598	10
0	8649	2979.648934949435	9
0	8656	2979.763770783808	10
0	8658	2981.017828318817	9
0	8663	2981.262901156822	8
0	8670	2986.273499826079	9
0	8673	2988.423866948158	10
0	8674	2989.399238942312	9
0	8680	2994.067918748814	8
0	8686	2994.709378792066	9
0	8690	2997.733864621884	10
0	8693	2998.955867348314	9
0	8699	3001.240984455241	8
0	8711	3002.732923460326	7
0	8716	3003.149702076164	6
0	8722	3004.194301779285	7
0	8724	3004.590004682454	8
0	8725	3005.489952053489	7
0	8732	3007.407463377942	8
0	8733	3007.606232890708	7
0	8738	3011.380855627631	6
0	8742	3011.764109223501	7
0	8750	3015.224046940988	6
0	8758	3016.350485797216	5
0	8764	3016.453752247408	6
0	8765	3017.168429249167	5
0	8773	3018.83457731657	6
0	8774	3020.51440490832	5
0	8779	3020.982090813699	4
0	8785	3025.779732652197	5
0	8786	3026.25835039644	4
0	8794	3027.722240096227	3
0	8799	3027.839067481248	2
0	8803	3029.049758443408	3
0	8808	3032.587205208857	4
0	8810	3033.286959039132	5
0	8811	3034.446146649328	4
0	8817	3035.930390101105	5
0	8819	3036.948283261641	6
0	8822	3038.38391553602	5
0	8826	3043.915984455698	6
0	8834	3046.60507063279	5
0	8840	3047.166990555331	4
0	8848	3048.456046544933	5
0	8850	3051.767569978316	4
0	8855	3051.904347198883	3
0	8861	3053.063541432684	4
0	8866	3054.876362778019	3
0	8872	3055.953854434283	2
0	8877	3057.373998901879	1
0	8883	3059.30350613824	0
0	8899	3061.099286016637	1
0	8900	3061.308655470587	0
0	8919	3068.948777633687	1
0	8921	3069.520196855192	2
0	8923	3069.68581963512	3
0	8926	3070.600209515172	2
0	8932	3071.638890105235	1
0	8940	3074.746824594226	0
0	8951	3076.351688610616	1
0	8953	3076.391665331014	2
0	8955	3078.842772347252	3
0	8958	3079.853863194649	2
0	8964	3081.094241035543	3
0	8968	3083.836217595936	4
0	8969	3084.695829361944	3
0	8974	3085.160789326195	2
0	8979	3085.325256742194	1
0	8989	3088.386309172578	2
0	8991	3088.988297810726	3
0	8992	3089.392164333008	2
0	9000	3094.146818176277	3
0	9004	3096.501441864813	2
0	9010	3097.851509849462	3
0	9011	3098.347563070797	2
0	9015	3099.330684015634	3
0	9017	3099.581539381453	4
0	9021	3100.991146733195	5
0	9025	3102.008522960515	6
0	9026	3102.101946482715	5
0	9032	3105.266792766415	4
0	9037	3106.054800172387	3
0	9042	3111.40209157484	2
0	9046	3111.934654378199	3
0	9050	3113.039828974545	4
0	9053	3114.435278321252	3
0	9060	3115.675738104936	2
0	9067	3116.049941360288	1
0	9073	3117.104968657713	0
0	9079	3117.508936585865	1
0	9081	3117.682021890174	2
0	9082	3117.767464896892	1
0	9088	3118.095524007466	2
0	9089	3118.985993543494	1
0	9095	3119.236694360113	2
0	9097	3120.189053991	1
0	9103	3120.544494834049	0
0	9109	3121.038495676767	1
0	9111	3121.642762819609	0
0	9122	3124.521317313	1
0	9126	3125.607433762097	0
0	9140	3128.239637332028	1
0	9141	3132.06532135019	0
0	9148	3132.501183985813	1
0	9150	3132.903805180823	2
0	9153	3134.01867509374	1
0	9159	3137.988545436584	0
0	9172	3139.365567241942	1
0	9178	3141.526038243555	0
0	9184	3141.985449584481	1
0	9185	3143.142102002166	0
0	9199	3146.670932758064	1
0	9201	3148.963455019377	0
0	9213	3150.899740087435	1
0	9217	3151.399428768056	2
0	9218	3153.128084972803	1
0	9223	3153.666608214472	0
0	9243	3162.884521633244	1
0	9248	3165.118821992103	0
0	9259	3165.828192609786	1
0	9261	3166.586766794925	2
0	9263	3167.485034909993	3
0	9266	3171.263313476184	2
0	9273	3173.995289930676	1
0	9279	3174.654512475842	0
0	9287	3176.939101777659	1
0	9288	3177.27435731092	0
0	9296	3177.297643286496	1
0	9297	3177.810818385276	0
0	9306	3179.888428211281	1
0	9307	3179.937862605684	0
0	9318	3182.017032117908	1
0	9319	3182.387520506738	0
0	9325	3184.516758524018	1
0	9328	3186.622694603905	0
0	9357	3191.527449171527	1
0	9358	3193.428703377738	0
0	9371	3200.596936460302	1
0	9372	3201.883686369492	0
0	9402	3209.493594889574	1
0	9403	3210.672728665925	0
0	9412	3212.550028848118	1
0	9413	3213.704125285906	0
0	9419	3213.708661003658	1
0	9422	3215.924509986295	2
0	9423	3217.075556679239	1
0	9434	3221.097779168464	2
0	9436	3223.169394747392	3
0	9438	3224.388627805053	4
0	9439	3227.314863440106	3
0	9445	3229.735809604164	2
0	9453	3231.144608914724	1
0	9459	3231.17329691224	2
0	9462	3232.246237193967	3
0	9468	3239.289588168529	2
0	9475	3239.377601673481	3
0	9476	3240.470202530262	2
0	9481	3240.697831451742	1
0	9487	3241.237341410351	0
0	9495	3241.81704565324	1
0	9501	3244.690076808171	2
0	9502	3245.000910322042	1
0	9513	3248.232252166953	2
0	9516	3251.672738896011	1
0	9522	3252.222539053245	2
0	9524	3254.981544740341	3
0	9525	3255.404875651795	2
0	9531	3257.968438886187	1
0	9537	3258.315012664902	2
0	9539	3261.543664198215	1
0	9546	3265.053562339544	0
0	9553	3266.192890855954	1
0	9554	3266.641818885291	0
0	9565	3268.012414548762	1
0	9567	3268.467858775793	2
0	9570	3271.865968726591	3
0	9571	3272.393701719947	2
0	9579	3276.312757479582	1
0	9586	3277.454748380378	2
0	9587	3278.2448692675	1
0	9592	3278.285150311891	0
0	9604	3280.767328352059	1
0	9607	3281.113421659532	2
0	9615	3287.144247800045	1
0	9620	3287.930846480771	0
0	9632	3290.771093429988	1
0	9635	3292.014460965672	2
0	9636	3292.072479005621	1
0	9641	3293.506045212841	0
0	9663	3301.167774502292	1
0	9664	3303.117561275708	0
0	9684	3310.579223866	1
0	9690	3313.519025942437	2
0	9691	3313.881500177866	1
0	9697	3314.199295737548	0
0	9714	3318.541200678086	1
0	9715	3324.221464206945	0
0	9721	3324.283057411621	1
0	9727	3329.029198583548	0
0	9734	3330.698285443455	1
0	9736	3331.737031538691	2
0	9737	3331.870953811305	1
0	9745	3333.903250862439	2
0	9746	3334.004157866643	1
0	9751	3334.998610631463	0
0	9758	3336.254148311056	1
0	9760	3336.660100484126	0
0	9767	3341.299428334745	1
0	9770	3343.203309014162	0
0	9799	3348.789788250465	1
0	9802	3350.57349130103	0
0	9846	3372.769723063199	1
0	9848	3372.773799007665	2
0	9850	3374.082272845601	3
0	9856	3377.341033070543	4
0	9858	3377.483196767174	5
0	9860	3378.624845259464	6
0	9861	3378.736863750307	5
0	9868	3379.122350879664	4
0	9877	3380.279728610863	5
0	9878	3380.464887731193	4
0	9884	3381.755012865297	3
0	9890	3381.772505742264	4
0	9891	3381.86917952621	3
0	9900	3386.280132229858	4
0	9902	3387.551756827088	3
0	9908	3389.671986959414	2
0	9916	3391.777849837357	3
0	9917	3391.920820738597	2
0	9924	3396.392090294905	3
0	9925	3398.416554575589	2
0	9931	3400.80808680672	1
0	9937	3402.506529209605	2
0	9939	3403.592321362467	1
0	9946	3404.682662716811	2
0	9947	3405.863212212014	1
0	9957	3407.996418222299	0
0	9977	3412.676417005078	1
0	9978	3413.098741090734	0
0	9993	3415.855259552939	1
0	9996	3417.419381784633	0
0	10011	3419.934647369661	1
0	10013	3420.399220648634	2
0	10016	3423.263944457229	1
0	10021	3425.698957955325	0
0	10030	3426.937835864482	1
0	10032	3427.499556537169	2
0	10035	3428.86833059241	1
0	10040	3429.408285750084	0
0	10046	3432.109560801105	1
0	10049	3432.947399669431	2
0	10051	3433.437472111394	3
0	10056	3435.689520083698	4
0	10058	3437.652304811555	5
0	10059	3439.687466244869	4
0	10066	3441.086434799903	5
0	10068	3442.509063717715	6
0	10069	3442.925099526479	5
0	10079	3443.777216684605	4
0	10088	3445.012310426605	5
0	10090	3445.118310081892	6
0	10091	3445.701901772232	5
0	10097	3454.141866763647	4
0	10103	3454.704879652115	5
0	10106	3455.619186002387	6
0	10108	3456.153720384781	7
0	10110	3459.990822391008	6
0	10118	3460.62238253958	5
0	10123	3461.092850511902	4
0	10129	3464.799716294042	3
0	10135	3466.632998944995	4
0	10136	3467.5099090585	3
0	10141	3469.710450076232	2
0	10146	3471.119706063913	1
0	10155	3473.719395934609	0
0	10161	3474.423608107388	1
0	10163	3475.059242877043	0
0	10169	3475.303793857373	1
0	10171	3475.941063077422	0
0	10190	3480.340120903161	1
0	10191	3481.345134078679	0
0	10210	3486.41866960308	1
0	10211	3486.615882999515	0
0	10233	3497.19865229572	1
0	10237	3500.181564564274	2
0	10238	3500.569667745749	1
0	10245	3501.481796480691	2
0	10246	3501.852984762287	1
0	10253	3502.859946329248	0
0	10268	3506.056680199573	1
0	10271	3507.371895404616	0
0	10278	3509.853052898537	1
0	10281	3511.953309839171	2
0	10282	3512.213371703195	1
0	10288	3513.899620235192	0
0	10294	3515.152350397386	1
0	10295	3515.244332024558	0
0	10306	3517.985887238516	1
0	10309	3519.00652729851	2
0	10314	3526.880468132621	1
0	10319	3528.085312786585	0
0	10326	3532.434865057252	1
0	10328	3533.687759339942	2
0	10329	3534.306700370267	1
0	10335	3535.818926222665	0
0	10347	3541.947298689163	1
0	10350	3545.119060506055	0
0	10356	3546.503094859966	1
0	10358	3550.686238396571	2
0	10359	3551.505659538887	1
0	10365	3551.797395535628	2
0	10366	3551.969438045974	1
0	10374	3552.595901366969	0
0	10380	3552.653535210951	1
0	10382	3553.18151671189	2
0	10386	3556.485519661681	1
0	10392	3558.829273380527	0
0	10399	3560.806437141532	1
0	10401	3561.475572180036	2
0	10402	3562.529081838329	1
0	10407	3563.071244582056	0
0	10422	3567.937790031912	1
0	10424	3568.699480830442	2
0	10425	3572.306069360581	1
0	10432	3573.791031010278	2
0	10433	3574.078729578924	1
0	10438	3574.336295486182	0
0	10454	3580.206624939718	1
0	10460	3583.31394919415	2
0	10464	3586.901715209911	3
0	10467	3588.785574037362	2
0	10472	3588.905495350817	1
0	10478	3589.683083928399	0
0	10567	3617.453618355162	1
0	10573	3620.129968543435	2
0	10579	3622.066176616793	3
0	10581	3622.854876084975	4
0	10585	3629.13956769449	5
0	10587	3630.823995517807	6
0	10590	3631.068489928458	5
0	10598	3632.383943629129	6
0	10599	3634.409494824392	5
0	10604	3635.107301494347	4
0	10609	3635.266348794562	3
0	10616	3636.619516980241	2
0	10622	3637.154787411937	3
0	10626	3639.165274890584	4
0	10631	3643.605964025285	3
0	10637	3645.171556081717	2
0	10643	3645.363493406636	3
0	10645	3646.589435010936	2
0	10654	3652.161144163654	1
0	10661	3653.314899071479	0
0	10668	3657.013219983262	1
0	10672	3667.93742097104	2
0	10676	3668.776438741048	3
0	10679	3677.210038182142	2
0	10684	3679.770573877723	1
0	10693	3690.410855714735	0
0	10711	3695.247509582466	1
0	10713	3695.79623634449	2
0	10714	3698.051741983655	1
0	10719	3698.684546680864	0
0	10740	3704.7450378184	1
0	10742	3704.882904054978	0
0	10749	3707.082762376244	1
0	10753	3709.282278687439	2
0	10755	3709.707141703464	3
0	10757	3710.286426872307	2
0	10762	3711.526514123754	1
0	10769	3713.233775922541	0
0	10781	3715.674059247385	1
0	10784	3716.771156807262	2
0	10786	3720.718228196438	1
0	10792	3722.183519169212	0
0	10803	3723.395379699734	1
0	10806	3728.970158934852	0
0	10820	3731.852558203302	1
0	10823	3732.551233562003	0
0	10829	3732.651905880493	1
0	10834	3734.743994036832	2
0	10835	3735.501987633732	1
0	10841	3735.79046120366	0
0	10853	3741.338282124909	1
0	10854	3741.53822874396	0
0	10860	3741.70247865333	1
0	10863	3743.900695261554	0
0	10878	3748.306304239495	1
0	10879	3750.316284545796	0
0	10895	3751.381355671879	1
0	10897	3753.690166439822	0
0	10907	3756.706709267799	1
0	10909	3757.212186794095	2
0	10911	3758.13983482218	3
0	10914	3759.22867786461	2
0	10919	3759.23046809098	1
0	10926	3759.873890799172	2
0	10927	3760.26048300288	1
0	10932	3760.942125924181	0
0	10938	3761.247141096081	1
0	10941	3763.299738922332	0
0	10968	3768.377858159398	1
0	10970	3769.565531679622	2
0	10975	3770.418418967057	1
0	10983	3773.022197600978	2
0	10985	3773.230584377302	3
0	10988	3776.633803164807	4
0	10989	3778.582426202972	3
0	10998	3781.176502692662	2
0	11004	3781.731459473789	1
0	11011	3782.832997619978	2
0	11015	3784.735021270416	1
0	11023	3785.315651290674	2
0	11024	3785.955425322263	1
0	11032	3791.617434049147	0
0	11054	3799.169491509902	1
0	11058	3800.120204327912	2
0	11061	3801.518258621733	1
0	11069	3802.657761791971	0
0	11088	3806.790657191476	1
0	11089	3807.049203662382	0
0	11095	3807.628113266839	1
0	11097	3808.169835981948	0
0	11103	3808.666921885966	1
0	11106	3809.886710406959	2
0	11108	3813.028462477853	3
0	11109	3813.061395453521	2
0	11114	3814.467930726015	1
0	11126	3817.516605390174	2
0	11127	3819.448715205946	1
0	11134	3821.584925034595	0
0	11161	3827.393907416294	1
0	11162	3827.993893128509	0
0	11174	3829.72391177378	1
0	11176	3830.304444016134	0
0	11195	3836.28012905503	1
0	11198	3838.288031944456	0
0	11205	3839.201972014563	1
0	11209	3840.708327664044	2
0	11210	3841.729195749456	1
0	11217	3844.116466114018	2
0	11218	3846.930525674329	1
0	11225	3847.490647572342	0
0	11242	3855.552460247567	1
0	11243	3856.159335443029	0
0	11249	3856.733117484694	1
0	11250	3857.622372486704	0
0	11260	3860.621771120147	1
0	11261	3860.669363230475	0
0	11293	3866.910435189737	1
0	11298	3869.018838800571	0
0	11315	3872.709122455065	1
0	11318	3873.667872244899	2
0	11320	3873.954481065487	3
0	11322	3874.776963519548	4
0	11324	3875.137309267027	3
0	11331	3876.56614114076	4
0	11333	3877.037771668402	5
0	11335	3878.403230199449	4
0	11340	3880.193056389978	3
0	11345	3882.764756474705	2
0	11351	3882.795193910758	3
0	11353	3882.835328455421	4
0	11357	3883.852741100076	3
0	11362	3887.110041860495	2
0	11370	3897.486282377657	1
0	11375	3897.555141338726	0
0	11402	3905.209199665801	1
0	11410	3910.756117571975	2
0	11411	3913.010155035741	1
0	11417	3913.980406926436	2
0	11418	3915.637705029345	1
0	11427	3919.750994183098	0
0	11444	3923.701102021191	1
0	11447	3927.13285382402	0
0	11472	3934.587543695301	1
0	11476	3937.929186152958	2
0	11477	3938.167595725698	1
0	11483	3938.468286584003	2
0	11485	3939.824065617578	1
0	11492	3941.390762819225	2
0	11494	3942.269365028057	3
0	11496	3944.471524407436	4
0	11497	3945.691281419592	3
0	11502	3946.788396896115	2
0	11508	3946.898845950332	3
0	11509	3948.290741599256	2
0	11514	3948.444189751302	1
0	11521	3950.460168410531	0
0	11533	3952.804646889075	1
0	11534	3953.151173527206	0
0	11538	3953.419581795817	1
0	11542	3955.496857461592	2
0	11545	3957.078140918467	1
0	11550	3958.285773584544	0
0	11593	3980.331804202518	1
0	11594	3982.723520781589	0
0	11605	3983.112259072153	1
0	11613	3987.478296731239	0
0	11622	3988.551408184679	1
0	11626	3988.948874319628	2
0	11628	3989.698945691463	3
0	11633	3995.112573188208	4
0	11636	3998.431009627248	3
0	11641	3998.685897582825	2
0	11647	4000.322588663395	3
0	11648	4000.740405049892	2
0	11653	4000.957020882761	1
0	11657	4001.432944728263	2
0	11663	4003.034906944741	1
0	11668	4003.196325149773	0
0	11705	4019.352702471654	1
0	11706	4021.1521634246	0
0	11713	4022.28008634477	1
0	11714	4023.23855435832	0
0	11720	4023.471573210204	1
0	11721	4024.520041682964	0
0	11732	4031.713870766805	1
0	11733	4032.155818930566	0
0	11742	4033.821847711306	1
0	11744	4033.887443699075	2
0	11750	4035.555184811585	3
0	11751	4035.945106896613	2
0	11757	4036.652751056204	3
0	11759	4038.816144653914	2
0	11764	4039.340404955825	1
0	11770	4040.031033568031	0
0	11776	4040.945363305389	1
0	11779	4043.172385813282	0
0	11785	4043.200171088522	1
0	11791	4046.379047834979	2
0	11792	4046.432629771287	1
0	11798	4047.480043646491	2
0	11799	4048.234415465257	1
0	11804	4049.667829371936	0
0	11808	4050.994610777749	1
0	11811	4053.265841662086	0
0	11830	4065.348592275826	1
0	11831	4065.411204424686	0
0	11858	4073.913302604827	1
0	11859	4074.038015029936	0
0	11868	4075.919442563131	1
0	11872	4078.399904993654	0
0	11881	4079.516437760695	1
0	11888	4084.195879671222	2
0	11890	4085.9183094728	1
0	11896	4087.120704187729	2
0	11898	4088.174219466554	1
0	11904	4088.646836340871	0
0	11926	4092.406762831045	1
0	11927	4092.856102961178	0
0	11942	4095.478498661049	1
0	11944	4095.914529921768	2
0	11947	4097.17339581608	1
0	11955	4098.22382542975	2
0	11956	4101.148950548541	1
0	11962	4103.376987866999	0
0	11971	4104.164497514533	1
0	11974	4106.221864497919	0
0	11994	4111.444988005573	1
0	11998	4113.866388813469	0
0	12010	4115.954972497054	1
0	12014	4118.618060057393	2
0	12015	4120.676435256219	1
0	12021	4121.14959202563	2
0	12027	4127.00956387788	1
0	12034	4127.298364977992	0
0	12048	4128.349495992169	1
0	12050	4128.422710008833	2
0	12057	4135.106196793199	1
0	12063	4135.580775950627	2
0	12065	4136.051556216528	1
0	12071	4136.572887046816	0
0	12092	4140.638150207061	1
0	12096	4142.310366948835	2
0	12098	4142.573128711257	3
0	12100	4144.989486145705	4
0	12101	4145.308386445566	3
0	12107	4145.854314370461	2
0	12115	4148.4084013158	1
0	12122	4149.252035999937	0
0	12128	4149.283596914088	1
0	12133	4151.640903616661	0
0	12145	4152.28319760365	1
0	12147	4156.415824337508	2
0	12148	4158.283465258439	1
0	12156	4159.858630895231	2
0	12158	4159.860605745535	3
0	12159	4160.234527702783	2
0	12166	4160.642809459382	3
0	12168	4161.563597483836	4
0	12169	4163.101282761776	3
0	12177	4163.725960535979	2
0	12183	4164.579996648816	1
0	12192	4166.742141819906	2
0	12193	4167.312225555969	1
0	12199	4168.16529204897	2
0	12201	4169.210303734103	1
0	12212	4171.13597079994	0
0	12225	4174.977114836722	1
0	12227	4176.738741498715	0
0	12256	4184.540815359639	1
0	12262	4186.080444062271	2
0	12265	4189.415515272123	1
0	12270	4190.900779341636	0
0	12276	4190.964212003731	1
0	12278	4191.63593872777	0
0	12287	4193.982102864752	1
0	12292	4196.251082082265	2
0	12296	4197.425825337248	3
0	12297	4198.968672752362	2
0	12304	4199.378033924399	3
0	12306	4199.392079623649	4
0	12308	4203.000361810716	3
0	12313	4203.14602782497	2
0	12318	4203.326986155327	1
0	12324	4204.187816181632	0
0	12335	4206.876194634985	1
0	12338	4208.006424860001	0
0	12349	4213.674634230919	1
0	12352	4214.251377263005	0
0	12358	4218.202427700443	1
0	12360	4218.226368447021	2
0	12362	4218.533830130791	3
0	12365	4219.602384376952	2
0	12373	4224.608398279004	1
0	12378	4224.834209738009	0
0	12384	4225.667612236737	1
0	12386	4226.229296223425	0
0	12392	4226.401173823547	1
0	12393	4226.887645411778	0
0	12397	4227.008389043404	1
0	12403	4228.686415638602	0
0	12424	4239.867597464291	1
0	12428	4240.932148173231	2
0	12431	4244.223581464999	1
0	12437	4245.899554827077	0
0	12443	4246.028521431971	1
0	12445	4247.087317951604	2
0	12447	4248.406626156282	1
0	12453	4250.304922555656	2
0	12454	4250.684464285413	1
0	12459	4250.966709933182	0
0	12478	4260.495372164858	1
0	12480	4263.168490422628	0
0	12507	4275.361791336969	1
0	12509	4275.530922218352	2
0	12511	4277.153579260499	3
0	12514	4278.02762493805	2
0	12519	4278.39770122874	1
0	12526	4284.825668202225	0
0	12533	4285.4442754033	1
0	12535	4286.828166311056	0
0	12545	4290.859353429502	1
0	12546	4291.661280012126	0
0	12552	4292.479828730585	1
0	12556	4293.883068168277	2
0	12557	4293.961560438559	1
0	12562	4294.285708215342	0
0	12597	4306.561230545751	1
0	12601	4307.543165698997	2
0	12605	4310.790488908974	1
0	12616	4314.019183973441	2
0	12618	4317.555743446433	3
0	12619	4317.904634291372	2
0	12626	4318.959049456744	1
0	12631	4319.333191190076	0
0	12638	4319.762035972928	1
0	12639	4320.283821451241	0
0	12651	4322.940374550644	1
0	12652	4323.188396676774	0
0	12666	4327.413262284397	1
0	12667	4327.48741646066	0
0	12673	4327.750014384008	1
0	12674	4327.87508333721	0
0	12698	4333.197312405431	1
0	12702	4333.341308165045	2
0	12707	4336.59354628204	1
0	12713	4337.987803520567	0
0	12724	4338.987467320085	1
0	12730	4340.327378485554	2
0	12732	4340.430843833694	3
0	12734	4341.539345324997	4
0	12736	4341.73239834278	5
0	12737	4342.428762745389	4
0	12742	4342.562234754627	3
0	12748	4342.765679141696	2
0	12755	4344.124281583889	1
0	12760	4344.151075472306	0
0	12764	4346.158698256665	1
0	12768	4346.701983665733	2
0	12771	4347.707152904191	3
0	12772	4347.847438873318	2
0	12780	4349.59559756443	3
0	12782	4350.275059517931	2
0	12788	4354.911271221792	1
0	12795	4357.162230094619	2
0	12796	4357.825817093685	1
0	12801	4358.513778274838	0
0	12808	4360.920843787773	1
0	12812	4364.716181316186	0
0	12830	4371.183565806793	1
0	12831	4371.36393580368	0
0	12853	4378.34629909761	1
0	12857	4380.868674026696	0
0	12870	4388.065630191324	1
0	12876	4392.837782212169	2
0	12879	4395.052829539492	1
0	12886	4396.32667166009	2
0	12889	4399.242257997297	3
0	12890	4400.500874960631	2
0	12897	4401.333727134716	3
0	12899	4401.732532939281	2
0	12904	4401.912723050454	1
0	12910	4403.436997195044	2
0	12911	4404.360744190635	1
0	12917	4404.507374610711	2
0	12918	4404.822159116143	1
0	12925	4408.382979916122	0
0	12946	4413.554150117832	1
0	12949	4414.233146175144	2
0	12950	4416.575528261379	1
0	12956	4417.717178529391	2
0	12958	4418.048705450038	1
0	12964	4420.4612869411	0
0	12970	4420.46226737125	1
0	12972	4420.625394199973	2
0	12976	4422.630941997562	3
0	12977	4422.89611098699	2
0	12982	4423.845972414717	1
0	12992	4425.17503105338	0
0	13028	4438.495393873771	1
0	13029	4439.506496387316	0
0	13041	4443.515476622685	1
0	13042	4443.859375957812	0
0	13064	4449.532461361545	1
0	13067	4454.22009753154	0
0	13085	4457.408845599641	1
0	13088	4459.031013111624	2
0	13090	4463.212874846997	3
0	13091	4464.868648578529	2
0	13097	4465.424199032099	1
0	13102	4465.703672959168	0
0	13108	4467.120672946364	1
0	13110	4467.788993154655	2
0	13112	4468.028796798282	1
0	13118	4468.452422055302	0
0	13124	4469.07514243479	1
0	13126	4469.389705215085	2
0	13129	4470.814328916688	1
0	13135	4472.240761866348	0
0	13141	4472.524963412199	1
0	13142	4473.075008909459	0
0	13163	4482.104303492866	1
0	13165	4482.877238115807	2
0	13166	4485.079893982015	1
0	13172	4485.68704411908	2
0	13179	4488.575857544022	3
0	13183	4490.199448619613	4
0	13184	4490.34011563515	3
0	13192	4492.222437450102	2
0	13198	4494.230194078577	1
0	13203	4494.701710930371	0
0	13221	4502.881078278548	1
0	13222	4507.707386563069	0
0	13237	4516.368102656819	1
0	13239	4516.899236195083	2
0	13240	4517.131143314562	1
0	13247	4519.27985959183	2
0	13248	4519.996184188517	1
0	13253	4520.410129731153	0
0	13261	4521.697897437818	1
0	13262	4522.036899217355	0
0	13286	4529.032698153543	1
0	13290	4530.548857853314	2
0	13291	4531.395946779387	1
0	13297	4532.892180498329	0
0	13325	4537.38487006777	1
0	13327	4538.210305398672	2
0	13328	4538.586350071787	1
0	13333	4539.270912930533	0
0	13364	4545.28956652075	1
0	13365	4546.060382208824	0
0	13372	4546.881280861756	1
0	13374	4550.27985971058	2
0	13375	4552.901570716473	1
0	13383	4556.245797823264	0
0	13398	4557.010417114216	1
0	13400	4557.18811299356	2
0	13404	4557.440313037993	1
0	13411	4557.770269895961	0
0	13433	4562.78929141203	1
0	13434	4562.858884099674	0
0	13440	4562.93237463995	1
0	13442	4563.689927914594	0
0	13452	4565.668848529515	1
0	13453	4570.104026581227	0
0	13474	4574.229776818456	1
0	13477	4575.041039271251	0
0	13491	4577.353096108003	1
0	13493	4577.840429785877	2
0	13495	4578.76233172991	3
0	13499	4583.626430490914	2
0	13505	4584.808989581434	3
0	13507	4587.488351624178	2
0	13514	4588.795727970611	1
0	13520	4589.403567499202	0
0	13570	4610.648487526486	1
0	13572	4611.006285376345	2
0	13574	4611.743509718036	3
0	13576	4614.473011096501	4
0	13578	4619.089753311027	5
0	13582	4620.023289454997	6
0	13585	4621.579169365873	5
0	13590	4622.079167481291	4
0	13608	4625.690272380567	5
0	13609	4629.718340754615	4
0	13617	4631.907294592856	3
0	13623	4634.127974708383	2
0	13631	4634.743288770496	1
0	13636	4634.916386403442	0
0	13645	4639.239348602969	1
0	13646	4640.310367709709	0
0	13657	4643.768853835697	1
0	13658	4644.030296677563	0
0	13675	4647.66390275433	1
0	13678	4648.876697769077	0
0	13704	4660.782641844607	1
0	13707	4661.144760517333	0
0	13713	4661.716015466355	1
0	13718	4664.999205930352	0
0	13727	4665.318311514477	1
0	13731	4668.148813943534	2
0	13735	4669.862423076186	1
0	13740	4670.673985709588	0
0	13748	4672.751855485869	1
0	13749	4673.04012006545	0
0	13789	4690.190538717068	1
0	13791	4690.425511459718	2
0	13793	4690.49353874251	3
0	13795	4691.386600695988	2
0	13800	4692.055053014943	1
0	13806	4693.456142009918	2
0	13814	4699.10946392352	3
0	13815	4699.463904711478	2
0	13821	4699.549016793209	3
0	13826	4701.095425628104	4
0	13827	4702.15242177029	3
0	13832	4704.622125735755	2
0	13837	4704.720447295117	1
0	13843	4706.021037424447	0
0	13857	4711.957782828418	1
0	13862	4714.351270442918	2
0	13867	4714.850670778847	3
0	13869	4715.319518515226	2
0	13876	4718.129755479308	1
0	13882	4718.581014436321	0
0	13898	4722.790961775502	1
0	13901	4725.438818355332	0
0	13908	4726.461647101127	1
0	13909	4727.082405451944	0
0	13925	4729.38512494183	1
0	13927	4729.491597537214	2
0	13928	4730.518239335823	1
0	13937	4732.570169674413	2
0	13941	4735.675461533673	1
0	13952	4737.218022798243	2
0	13955	4738.564536311736	1
0	13961	4740.63001312999	0
0	13970	4742.306486583754	1
0	13971	4743.906085024021	0
0	13984	4751.654562327248	1
0	13985	4751.984987284296	0
0	14005	4758.412777768406	1
0	14006	4759.643618526695	0
0	14024	4770.499615355144	1
0	14026	4771.372148574043	2
0	14027	4771.373278962611	1
0	14033	4772.288511671227	0
0	14060	4784.880758427646	1
0	14062	4785.268073719204	2
0	14064	4786.384217669006	3
0	14067	4789.227115725831	2
0	14073	4790.778956642223	1
0	14078	4791.074908452108	0
0	14084	4791.374620342341	1
0	14089	4794.086560368117	0
0	14138	4809.37934092577	1
0	14140	4809.387472477094	2
0	14143	4811.356798278088	1
0	14148	4811.588267627501	0
0	14162	4814.996798964699	1
0	14168	4817.982300060933	0
0	14191	4830.96822293874	1
0	14193	4831.563666729751	2
0	14194	4832.315119143663	1
0	14199	4832.525754471939	0
0	14206	4832.952890782014	1
0	14209	4833.607651045122	2
0	14210	4835.480458902696	1
0	14219	4836.491496861551	2
0	14220	4840.29078709442	1
0	14226	4841.798020971521	0
0	14235	4846.348764974336	1
0	14236	4846.76676492365	0
0	14258	4855.954453987099	1
0	14261	4856.809986675081	2
0	14262	4858.6460037586	1
0	14269	4860.294843716356	2
0	14270	4862.901378374038	1
0	14277	4863.4869287281	2
0	14279	4863.535840830299	3
0	14280	4864.775926635093	2
0	14289	4867.301166626916	3
0	14290	4868.464124358093	2
0	14298	4869.773603588422	1
0	14304	4869.818695548468	2
0	14306	4871.130322113937	1
0	14313	4874.449618546681	2
0	14315	4874.479176628855	3
0	14318	4875.609954567583	2
0	14323	4875.689372312223	1
0	14332	4878.928641741948	0
0	14339	4882.160784974573	1
0	14341	4882.452929942494	2
0	14342	4883.017657236951	1
0	14348	4883.169522088658	2
0	14350	4884.190203058694	3
0	14351	4886.221848719423	2
0	14356	4887.927327430657	1
0	14362	4890.341402365083	2
0	14363	4891.039793937445	1
0	14370	4897.064728769514	0
0	14418	4910.423228364377	1
0	14420	4911.101205327038	2
0	14424	4912.550967165261	3
0	14426	4914.945013074301	4
0	14429	4916.726604605979	3
0	14435	4916.914685839144	4
0	14439	4919.314752525408	5
0	14440	4920.409090256067	4
0	14446	4921.374247249541	3
0	14451	4921.910432738855	2
0	14456	4922.286433405818	1
0	14461	4922.758625280573	0
0	14486	4930.231277362592	1
0	14490	4931.824347835481	2
0	14495	4934.082065936759	3
0	14496	4934.832147221201	2
0	14504	4938.86862908052	3
0	14506	4940.193384239739	4
0	14507	4940.574628372503	3
0	14512	4940.849584695199	2
0	14517	4941.329377121417	1
0	14522	4942.17019798162	0
0	14536	4945.813945523679	1
0	14540	4947.807901816711	2
0	14545	4950.926555913368	3
0	14546	4951.532061505865	2
0	14551	4952.225306793004	1
0	14556	4952.46770284228	0
0	14575	4955.784986739145	1
0	14580	4958.089445287878	0
0	14594	4962.41798996952	1
0	14596	4964.282619395797	2
0	14602	4966.495660593515	3
0	14604	4969.876812163071	2
0	14613	4972.230016922019	3
0	14615	4972.63340606545	4
0	14617	4974.484523167263	5
0	14621	4979.528546069492	6
0	14622	4979.812752365543	5
0	14628	4980.308097872462	6
0	14629	4983.896380824471	5
0	14636	4986.56797806509	4
0	14646	4988.285878198679	3
0	14652	4988.683070090062	4
0	14654	4990.06490086734	3
0	14663	4995.938196931389	4
0	14665	4997.603523430674	5
0	14666	4998.395423897441	4
0	14677	5000.19906610994	5
0	14678	5000.612952452337	4
0	14685	5002.09680095977	3
0	14690	5002.499110587021	2
0	14695	5002.615325697294	1
0	14700	5005.829441850095	0
0	14706	5007.269923102757	1
0	14708	5007.461639920251	2
0	14713	5013.410618944115	3
0	14714	5014.139113966792	2
0	14720	5015.967726548204	1
0	14726	5017.534545955383	0
0	14775	5037.496086587552	1
0	14778	5039.26964014569	0
0	14802	5045.133685722412	1
0	14807	5048.885965226322	0
0	14836	5064.132560756851	1
0	14841	5065.594179442953	0
0	14848	5066.322559258703	1
0	14852	5068.918314432778	0
0	14861	5071.749009669385	1
0	14862	5072.050232088012	0
0	14874	5074.077904915792	1
0	14877	5075.343079267927	2
0	14880	5076.861823075655	1
0	14887	5077.764079770223	0
0	14893	5077.898128293023	1
0	14896	5080.333071680465	2
0	14897	5080.919146079321	1
0	14903	5081.884691048708	2
0	14904	5082.183119283687	1
0	14910	5082.848949070529	0
0	14916	5082.919977085493	1
0	14920	5084.6899896691	0
0	14940	5088.469493090115	1
0	14943	5090.540302696551	0
0	14957	5092.558320814112	1
0	14958	5093.057959198683	0
0	14980	5103.785495245611	1
0	14981	5104.466735757987	0
0	15008	5115.788588681897	1
0	15011	5116.238911756514	0
0	15021	5121.317775764926	1
0	15025	5122.175811609107	2
0	15027	5122.21964494247	3
0	15028	5122.736842645259	2
0	15036	5127.730105629281	1
0	15042	5128.275282426392	2
0	15044	5130.195322472604	3
0	15045	5131.480990351622	2
0	15050	5131.688897841305	1
0	15060	5136.415388588127	0
0	15096	5148.740922353319	1
0	15100	5150.85756125934	2
0	15104	5155.684034180605	3
0	15109	5160.375471202784	2
0	15114	5160.514212911352	1
0	15121	5165.345502232873	0
0	15130	5166.208122379781	1
0	15131	5166.885420977762	0
0	15149	5171.088519346933	1
0	15150	5171.506246922528	0
0	15170	5179.360744459403	1
0	15174	5182.748745886851	2
0	15176	5184.234073996683	3
0	15177	5184.545828325982	2
0	15183	5184.914390839979	3
0	15185	5186.509805667602	2
0	15190	5186.776338771923	1
0	15195	5187.064447739142	0
0	15225	5193.917424001717	1
0	15230	5196.022982298839	0
0	15259	5205.844202977574	1
0	15264	5208.064372647541	0
0	15273	5209.286935266328	1
0	15275	5212.344658569676	0
0	15287	5217.809357992468	1
0	15288	5217.979109633742	0
0	15299	5219.860226665184	1
0	15300	5220.115134041091	0
0	15310	5222.584878932229	1
0	15311	5223.252440352594	0
0	15318	5223.893858607065	1
0	15320	5227.288875809643	0
0	15344	5230.627193280378	1
0	15347	5233.140105198332	0
0	15353	5233.615730205524	1
0	15355	5236.535098715759	0
0	15368	5240.308043641642	1
0	15369	5243.346296326397	0
0	15386	5250.279341033779	1
0	15387	5251.199503833578	0
0	15393	5251.499029053464	1
0	15397	5257.405174021669	0
0	15403	5258.468536184227	1
0	15404	5258.879625211494	0
0	15415	5259.665739565931	1
0	15420	5264.263256142217	2
0	15421	5264.541260588607	1
0	15428	5265.707223405328	2
0	15430	5266.187352880072	3
0	15433	5267.542861881078	4
0	15434	5268.191629691826	3
0	15440	5269.1678426396	2
0	15448	5270.647540594605	3
0	15450	5271.083529984256	2
0	15458	5279.579867658984	1
0	15466	5281.751446139486	0
0	15490	5290.147549495666	1
0	15495	5292.951244385653	0
0	15507	5295.560393353055	1
0	15512	5298.992652559052	0
0	15519	5301.196616646361	1
0	15521	5303.126748234613	2
0	15522	5303.881545734352	1
0	15529	5304.064228167678	2
0	15531	5304.325892552586	3
0	15532	5304.510448955306	2
0	15540	5307.12114422044	1
0	15547	5309.019711418096	0
0	15554	5310.511468294598	1
0	15556	5315.559906919344	0
0	15565	5316.398030838001	1
0	15569	5320.517459308711	0
0	15587	5331.529788248146	1
0	15588	5332.638664472954	0
0	15595	5338.404020716248	1
0	15597	5339.281101370813	2
0	15599	5340.913592905759	3
0	15601	5342.08990859845	4
0	15602	5342.53425011776	3
0	15608	5342.964886284015	4
0	15613	5350.681368726293	5
0	15618	5355.952539162142	4
0	15623	5356.37283954855	3
0	15631	5357.951897713087	2
0	15639	5358.96765012992	1
0	15645	5365.842224005671	0
0	15653	5368.433692658234	1
0	15655	5369.07069330693	2
0	15659	5370.788793649187	1
0	15664	5371.638556157215	0
0	15680	5373.668885812844	1
0	15682	5375.365755310948	2
0	15684	5375.74111050977	3
0	15686	5375.803884155811	4
0	15692	5378.385085637815	5
0	15695	5382.759898470816	4
0	15700	5382.88767282837	3
0	15705	5383.039003446194	2
0	15714	5385.015042877336	3
0	15716	5385.886095127396	4
0	15720	5387.58202971504	5
0	15721	5388.425625313902	4
0	15726	5389.533443957505	3
0	15735	5392.607461629068	2
0	15740	5392.699961023589	1
0	15745	5392.797469494956	0
0	15776	5395.457152443051	1
0	15778	5396.022783059962	2
0	15779	5396.616697676547	1
0	15786	5397.428933359077	0
0	15801	5399.194235689164	1
0	15808	5404.808258898656	0
0	15833	5409.011196300326	1
0	15837	5409.565296498821	0
0	15854	5412.825198940681	1
0	15855	5413.802162265422	0
0	15865	5416.823934799289	1
0	15867	5417.108130763934	2
0	15871	5417.90474426383	3
0	15874	5419.285073172221	2
0	15880	5419.522483316772	1
0	15886	5421.378166902435	2
0	15890	5425.43310509004	3
0	15892	5429.221717601206	4
0	15894	5430.123601469535	5
0	15895	5430.242189309288	4
0	15905	5432.393731718757	3
0	15911	5432.537642594094	4
0	15913	5434.261654266285	3
0	15918	5434.602457197656	2
0	15925	5434.691230459825	1
0	15931	5435.981244700024	0
0	15965	5448.346944445271	1
0	15967	5449.650738170318	2
0	15969	5450.697157240407	3
0	15970	5451.782413677106	2
0	15979	5453.729316657361	3
0	15981	5456.086361848775	4
0	15982	5458.451704278242	3
0	15988	5460.118047550723	2
0	15996	5464.536581445893	1
0	16001	5464.775395443082	0
0	16013	5468.154693879378	1
0	16015	5469.113232154915	2
0	16016	5469.861786023167	1
0	16022	5470.67574726038	0
0	16038	5479.198918118961	1
0	16041	5480.292005249492	0
0	16060	5487.126233462584	1
0	16065	5492.734890554023	0
0	16077	5495.851530161609	1
0	16078	5496.22956713796	0
0	16087	5497.63900860835	1
0	16092	5501.55690016277	2
0	16093	5501.886531427515	1
0	16099	5502.303686472992	2
0	16102	5504.523899244467	1
0	16108	5506.066411446431	2
0	16112	5507.190174316301	1
0	16120	5510.212235705786	2
0	16121	5510.297306313682	1
0	16129	5514.005130996748	2
0	16130	5515.078696009363	1
0	16139	5515.93209063223	2
0	16141	5516.842362291549	1
0	16146	5519.110079616739	0
0	16153	5519.842116657753	1
0	16154	5519.897449803929	0
0	16174	5529.245516290002	1
0	16178	5533.521069246495	2
0	16179	5534.046310057231	1
0	16184	5534.8167757819	0
0	16198	5536.450790367255	1
0	16203	5538.823092021333	0
0	16223	5543.605144292075	1
0	16224	5544.453951285026	0
0	16230	5544.922931609168	1
0	16231	5545.488464943092	0
0	16239	5547.206751392182	1
0	16240	5547.325041053351	0
0	16262	5552.691555021845	1
0	16263	5553.988164934374	0
0	16277	5557.037602452524	1
0	16278	5558.100967314127	0
0	16297	5562.486792499911	1
0	16299	5562.778241089747	2
0	16302	5563.949903353418	1
0	16308	5564.796089579221	2
0	16311	5566.227148326077	3
0	16313	5566.53880632472	4
0	16315	5566.724631904986	5
0	16317	5570.456927526114	6
0	16318	5570.512183155536	5
0	16324	5573.917101341767	6
0	16326	5575.075061232912	5
0	16337	5580.423395259913	6
0	16339	5580.858638816663	7
0	16343	5585.829512411398	8
0	16345	5586.33095933545	9
0	16352	5594.864570131587	8
0	16358	5596.891624420302	9
0	16362	5598.538897915362	10
0	16364	5600.118456972308	11
0	16365	5601.492732316521	10
0	16371	5602.139398667672	11
0	16374	5606.558666934059	10
0	16379	5606.951700092857	9
0	16385	5608.156482623643	8
0	16392	5609.681148639957	7
0	16398	5610.284903719356	8
0	16401	5611.005176592225	7
0	16405	5613.03352076602	8
0	16408	5614.536707816383	7
0	16418	5618.943075023016	8
0	16419	5620.083340183244	7
0	16425	5620.923328484994	6
0	16430	5621.002273910672	5
0	16441	5623.095273657996	4
0	16449	5625.816324447144	3
0	16455	5625.929399891225	4
0	16463	5630.240977488685	3
0	16469	5634.522876371252	4
0	16470	5639.11676180878	3
0	16477	5644.451136316495	2
0	16483	5644.863661938478	1
0	16488	5645.471698311996	0
0	16494	5645.894628253022	1
0	16496	5646.076461838971	2
0	16500	5647.351776558213	3
0	16502	5648.912488399662	4
0	16505	5649.889736562774	3
0	16512	5651.565808813794	2
0	16522	5654.438738926104	3
0	16523	5654.452502890071	2
0	16529	5654.808339806136	1
0	16536	5655.891780316333	0
0	16549	5658.492105565338	1
0	16550	5659.498732305382	0
0	16562	5661.746378117922	1
0	16565	5668.945055142758	0
0	16572	5670.691562610364	1
0	16576	5674.107558807977	0
0	16601	5680.757329440369	1
0	16605	5683.061508003921	2
0	16610	5685.378333568221	1
0	16616	5686.299897057074	2
0	16617	5686.66139403416	1
0	16626	5687.85835266368	2
0	16631	5690.661174912193	1
0	16637	5690.66254735666	2
0	16643	5695.040645265336	1
0	16649	5698.225252426692	0
0	16655	5698.813761665692	1
0	16658	5700.184876504473	2
0	16659	5700.489570086246	1
0	16664	5700.855148440411	0
0	16696	5707.420245320344	1
0	16702	5713.367219713601	2
0	16704	5714.31565542625	3
0	16706	5715.700873096085	4
0	16707	5716.146756879327	3
0	16713	5716.727345274865	2
0	16719	5716.999271096637	3
0	16720	5717.336291723039	2
0	16726	5717.735161736385	1
0	16732	5719.095993218906	2
0	16733	5719.29999805566	1
0	16739	5719.610388573427	2
0	16741	5722.893991423068	1
0	16745	5723.378840047824	2
0	16749	5723.796966914991	3
0	16752	5725.215023137124	2
0	16760	5728.682412174841	1
0	16767	5731.511979627381	0
0	16771	5731.529983828083	1
0	16777	5736.466499915155	0
0	16784	5737.359311125112	1
0	16787	5737.864025090704	2
0	16789	5738.910919673183	3
0	16790	5738.919123509651	2
0	16797	5739.64893975397	3
0	16798	5739.835327918005	2
0	16803	5742.414856792568	1
0	16808	5742.660794079969	0
0	16819	5748.933591909501	1
0	16820	5749.436584449643	0
0	16840	5757.287889832653	1
0	16842	5757.334957834975	2
0	16844	5758.474988399018	3
0	16848	5761.114536368115	2
0	16853	5761.378378030889	1
0	16859	5762.91433301826	0
0	16870	5764.283544876823	1
0	16873	5764.54491766807	2
0	16874	5764.612904534536	1
0	16879	5765.766779386355	0
0	16894	5771.022061943923	1
0	16896	5771.515013316076	2
0	16901	5776.719709777318	1
0	16906	5777.055714910134	0
0	16919	5782.580802207402	1
0	16924	5784.156491669016	0
0	16930	5785.968578769775	1
0	16932	5786.984453523443	0
0	16945	5791.038942408049	1
0	16950	5793.052845812353	0
0	16956	5793.4416304365	1
0	16958	5794.801071060188	2
0	16960	5797.166122317278	1
0	16968	5797.690998837751	0
0	16980	5799.818643247005	1
0	16985	5801.260955733979	0
0	16998	5802.41591665609	1
0	17001	5805.140705953875	0
0	17018	5809.549443958611	1
0	17022	5812.087387350154	2
0	17024	5814.76862146796	3
0	17025	5815.161603358295	2
0	17031	5816.089711061007	1
0	17036	5816.443577531181	0
0	17048	5818.98628580616	1
0	17050	5819.545925190992	0
0	17066	5821.222652182855	1
0	17068	5822.324263944112	0
0	17085	5823.524761898915	1
0	17089	5828.77932577284	2
0	17091	5830.326178560221	3
0	17093	5831.128718023717	4
0	17094	5831.803140735964	3
0	17102	5832.482086984957	4
0	17105	5834.169279181619	5
0	17108	5835.329168620749	6
0	17109	5836.029328794557	5
0	17114	5839.18207344428	4
0	17121	5842.260006259361	3
0	17127	5844.345849446002	2
0	17133	5845.978050380447	1
0	17138	5847.037018478435	0
0	17144	5848.858285627735	1
0	17146	5849.600252672906	2
0	17148	5850.76129056879	1
0	17153	5850.963889412701	0
0	17169	5856.6074395792	1
0	17170	5856.943434430913	0
0	17176	5857.026594650233	1
0	17177	5857.733959787878	0
0	17188	5859.745887820664	1
0	17190	5860.850066950232	0
0	17217	5868.176968033511	1
0	17221	5869.831718624254	2
0	17223	5869.982993581424	3
0	17224	5870.889560374029	2
0	17229	5872.095943659223	1
0	17236	5872.858513387495	2
0	17244	5877.219680218376	3
0	17245	5879.230774196938	2
0	17250	5881.758461297566	1
0	17255	5882.302528843906	0
0	17289	5903.292621975758	1
0	17292	5906.327116270502	0
0	17299	5908.709242917082	1
0	17305	5911.131852720277	0
0	17321	5915.732330583046	1
0	17325	5918.010451461261	0
0	17360	5936.309287896096	1
0	17364	5937.502696874021	2
0	17366	5939.998593135173	3
0	17368	5940.643295071038	4
0	17370	5941.340798166886	5
0	17373	5942.309771535908	4
0	17381	5943.708684879359	3
0	17388	5943.834651423051	4
0	17391	5945.325256121774	3
0	17397	5946.548159183365	4
0	17402	5949.806821127481	5
0	17403	5950.118639154235	4
0	17410	5952.219652974136	5
0	17412	5952.30321992808	6
0	17413	5952.312486644234	5
0	17419	5952.442240908586	6
0	17422	5954.211710785173	7
0	17424	5955.822510046647	8
0	17426	5956.815429198422	9
0	17427	5957.089937768202	8
0	17432	5957.154173439901	7
0	17438	5958.161456224168	6
0	17446	5960.695462196225	5
0	17452	5961.640908804345	4
0	17458	5963.685404688322	5
0	17459	5964.324738852523	4
0	17464	5964.989744356439	3
0	17470	5967.246698090767	2
0	17477	5970.511615656978	1
0	17484	5973.59779761986	0
0	17490	5974.043827595292	1
0	17491	5975.446377791976	0
0	17512	5979.645264741811	1
0	17513	5980.01970724268	0
0	17527	5982.900291090432	1
0	17530	5982.999116768068	2
0	17532	5983.026278382876	3
0	17533	5984.97661794746	2
0	17543	5991.550132774079	3
0	17545	5992.020360067462	4
0	17547	5992.832238060143	5
0	17550	5995.920074469667	4
0	17555	5996.275576390909	3
0	17560	5996.849024771283	2
0	17566	5997.420912092392	3
0	17570	6001.035762518587	2
0	17576	6007.038355492663	1
0	17583	6009.985485506688	0
0	17589	6011.039228116114	1
0	17593	6015.431143630066	0
0	17604	6017.952602982486	1
0	17606	6019.619695529951	0
0	17622	6023.121576247028	1
0	17623	6023.25116566896	0
0	17657	6036.5378392469	1
0	17661	6037.009553709273	0
0	17667	6037.345536313066	1
0	17670	6038.489842619556	0
0	17695	6046.368585360222	1
0	17700	6053.011386333461	0
[...]
4	79488	26645.478329618412	7157.4129849311
4	79519	26652.59349792169	7157.2070972738
4	79574	26671.320373055577	7165.864289188
4	79615	26683.375544353068	7176.8664826198
4	79669	26706.705632883094	7190.8419929891
4	79674	26706.721921067416	7188.4200395427
4	79685	26712.163308742684	7193.0074218948
4	79759	26744.451010568614	7213.8758799236
4	79771	26748.694479377119	7216.8681528349
4	79779	26755.98144329018	7223.3907086998
4	79786	26761.520184795796	7225.4282778772
4	79798	26764.071539657051	7223.9553646992
4	79803	26764.493738232486	7218.5751456299
4	79813	26772.556571300867	7206.5584650337
4	79824	26774.413921087751	7201.7844574976
4	79839	26779.613889477184	7198.7583879462
4	79871	26788.220334397019	7201.4081030215
4	79884	26794.703707040162	7201.7753232483
4	79917	26814.093077954343	7201.3344883896
4	79930	26815.626856236964	7201.0878595587
4	79955	26821.771608404877	7207.1341335633
4	79969	26828.259504129594	7208.5892528234
4	79988	26832.913686131486	7200.4106544831
4	79995	26834.621628987674	7197.5866825462
4	80008	26838.315079160259	7199.8045303888
4	80249	26917.896593721221	7256.6750799788
4	80260	26920.070465536112	7248.4242848656
4	80273	26923.442369092462	7250.3113363121
4	80284	26924.886861309641	7250.5822412691
4	80293	26927.91988802437	7248.5308549965
4	80314	26934.371045828127	7250.9697402596
4	80325	26938.454185007542	7254.9517333822
4	80338	26942.037806655477	7257.3003196407
4	80657	27059.60211011066	7368.3276372997
4	80667	27062.051910571733	7369.258797182
4	80695	27070.503221008153	7374.2068802362
4	80705	27076.605173615184	7372.6763407984
4	80713	27080.125268106902	7366.4224621633
4	80723	27081.112817164206	7367.1223922631
4	80731	27082.769147168523	7365.6054928371
4	80741	27088.931994713671	7367.8075088409
4	80760	27092.545313016049	7364.1272368422
4	80765	27094.883500650171	7363.939484268
4	80770	27099.592857160522	7358.5321622591
4	80779	27103.017315010758	7361.1376125987
4	80803	27115.609428895825	7356.4758087486
4	80866	27135.079291899172	7368.6343055921
4	80896	27141.456802202989	7357.2647334482
4	80901	27142.598476843435	7355.337166594
4	80908	27143.675054618359	7356.2028114986
4	80913	27144.540148027845	7356.5352372291
4	80928	27148.220615430897	7353.3482798472
4	80997	27173.329873095674	7370.6511354421
4	81002	27173.597697952689	7367.4468811362
4	81017	27179.036521364123	7372.2699658995
4	81033	27182.358420332872	7375.5812803643
4	81039	27183.316546954468	7367.8262003936
4	81049	27188.822051745914	7372.6735974676
4	81059	27189.61819191236	7363.1785139089
4	81065	27191.235630429901	7362.0488412273
4	81070	27193.297481434852	7362.5644637482
4	81077	27194.859461308099	7360.6966156066
4	81086	27199.834049961467	7358.0150069236
4	81095	27203.809046221255	7356.1123953553
4	81164	27226.429044513044	7377.6721578456
4	81214	27238.98002182944	7390.1081189477
4	81227	27247.259716387628	7397.9872863498
4	81245	27249.780497415702	7399.6658501412
4	81250	27250.846960895217	7400.4473748898
4	81262	27254.15959877283	7402.6709310085
4	81284	27259.495758396331	7406.313879484
4	81300	27263.449131175977	7407.6912752401
4	81329	27268.910273645979	7407.7144472877
4	81340	27269.752789854398	7407.4342036433
4	81357	27273.240025950533	7408.5744660806
4	81366	27275.140330602243	7409.3689132116
4	81389	27281.177642043759	7410.6589067242
4	81408	27286.372481327087	7414.1843706095
4	81413	27286.969611578295	7413.2445055693
4	81418	27289.033116935235	7411.8370801326
4	81433	27296.76641446748	7411.271552861
4	81520	27326.683705645872	7440.4071438116
4	81540	27330.247312519364	7433.7463697236
4	81545	27334.260036510436	7428.6845052711
4	81550	27338.003587329075	7429.7793867311
4	81555	27338.976313707704	7428.3171496425
4	81564	27342.459828702826	7399.9160522645
4	81574	27345.267706557146	7399.1541384863
4	81588	27354.430200624185	7407.5115693307
4	81607	27360.198352293247	7410.1150103775
4	81682	27382.005635367423	7419.5214169131
4	81778	27406.015468036526	7443.4571710601
4	81783	27408.967642376987	7443.4160125982
4	81788	27412.246189494022	7435.7494868926
4	81795	27414.493175660521	7406.3930394676
4	81812	27425.08729210545	7415.2924480545
4	81853	27436.388109741469	7424.661109489
4	81957	27460.252981738546	7447.9576420414
4	81978	27466.34165552532	7453.3862990227
4	81983	27467.725217363128	7438.0167546508
4	81994	27471.114253329012	7440.1672615101
4	82006	27474.883231584928	7438.5267994279
4	82011	27476.331215634557	7406.312575581
4	82016	27478.863506874199	7404.7461815995
4	82023	27485.244744379637	7403.4507142952
4	82028	27487.058892919403	7403.4522375301
4	82039	27498.161226288542	7404.1215609027
4	82111	27519.145420438835	7401.9387741674
4	82181	27544.98799394565	7405.9175314194
4	82188	27547.388017383056	7404.7773255013
4	82207	27559.373703415853	7414.7292942588
4	82286	27580.513543410511	7433.8126088273
4	82304	27583.646740709931	7421.0544851502
4	82310	27584.049418770321	7415.9162518394
4	82328	27594.222032762156	7423.5451889262
4	82349	27596.540260413572	7417.3189479396
4	82356	27599.869905334558	7419.1794402223
4	82371	27604.491657468173	7417.6332229914
4	82409	27626.222854724133	7438.8110627239
4	82426	27629.042633274396	7434.4792102846
4	82443	27637.604779341206	7427.6122841316
4	82476	27649.17365760302	7435.1258403455
4	82481	27649.692476852276	7423.0527840365
4	82492	27659.332549140367	7419.0796927082
4	82513	27671.061617144915	7427.9180117501
4	82541	27677.056350522199	7433.9029643747
4	82546	27677.330795146187	7417.3548679823
4	82552	27680.735021319917	7416.5565704041
4	82559	27685.316210392538	7412.4381551176
4	82576	27699.217111123885	7425.2066560649
4	82612	27708.587126911244	7431.8251473374
4	82647	27714.046374074102	7433.9708151114
4	82660	27717.873020293453	7431.7253527923
4	82666	27719.861059363674	7430.9268316741
4	82676	27722.794639589342	7433.3575365882
4	82709	27731.356543683493	7437.9497928916
4	82745	27742.715200560373	7448.9860378392
4	82777	27756.842548583295	7458.9686561408
4	82788	27758.263957312181	7449.2622119414
4	82805	27768.60751718633	7457.5169240119
4	82851	27778.585904723747	7442.4846190034
4	82862	27783.91830866309	7438.8605807774
4	82876	27792.31120738964	7446.6873223
4	82887	27795.395832659177	7447.702961492
4	82896	27804.697743863803	7446.0370522519
4	82907	27807.97256320777	7443.7767550422
4	82989	27830.948899771907	7459.1188303571
4	82994	27830.959583628288	7453.035579237
4	83004	27837.073793318189	7457.278463695
4	83021	27839.260452363164	7448.0729992273
4	83033	27843.574574573609	7446.3932017775
4	83158	27873.925139794852	7463.6915709741
4	83174	27878.585787869258	7467.3819998791
4	83187	27882.811853236552	7460.4002437472
4	83194	27885.700187525676	7455.9884526304
4	83212	27889.125818817722	7455.4338134846
4	83219	27891.537660163295	7434.2218529288
4	83229	27901.731969653142	7440.4633470686
4	83253	27910.513630601947	7446.1544480943
4	83258	27912.859418446855	7447.6093387723
4	83265	27914.146115727068	7448.2766328808
4	83272	27914.980891541518	7442.53251462
4	83285	27918.89177437078	7443.9756417562
4	83296	27925.423277956363	7449.9556877611
4	83312	27935.545442409043	7458.4904598943
4	83333	27945.485321537098	7467.5322646226
4	83374	27957.81160494672	7476.9547514602
4	83381	27959.178585782092	7465.3853833561
4	83397	27964.009898053896	7465.637099641
4	83406	27968.710080494044	7469.2306003071
4	83411	27971.765453660394	7470.5420129527
4	83420	27973.242550548684	7464.3733065441
4	83441	27978.841638103661	7469.0214542995
4	83454	27983.144333021574	7468.1193756861
4	83459	27987.70142029214	7472.1209569828
4	83464	27991.723340969451	7467.1523965818
4	83473	27997.372846352027	7455.8849164089
4	83492	28006.182941343104	7458.2644671987
4	83537	28014.740106063365	7466.4892712622
4	83542	28016.906078865163	7465.9672456882
4	83549	28021.827812409476	7469.6016925577
4	83564	28030.403050400371	7473.0541076159
4	83609	28048.803663645522	7490.4629096117
4	83644	28057.43220803683	7492.4639656149
4	83651	28058.359497980735	7490.2642048416
4	83656	28058.712771955564	7484.4867746228
4	83664	28062.513195408254	7486.7830010068
4	83676	28066.382268489456	7490.6249733502
4	83681	28068.021482945163	7485.8089081604
4	83692	28072.271349718101	7483.1950786925
4	83734	28091.166340425904	7497.7787456462
4	83741	28092.123066086032	7495.582373768
4	83762	28098.207254598842	7491.3224893763
4	83820	28118.226651436653	7508.5890993607
4	83828	28123.018339528795	7511.7388759903
4	83837	28127.453955699364	7509.9046041138
4	83859	28137.357959925912	7519.0613717005
4	83866	28147.106634359766	7525.324753317
4	83893	28160.818720536008	7538.8344903923
4	83981	28192.306595833578	7563.5625113228
4	83990	28193.526024416592	7561.5989111867
4	84016	28201.432328063295	7557.9608925717
4	84058	28211.981153833682	7562.751371427
4	84091	28218.651261231091	7566.6023036933
4	84100	28228.667050590558	7574.9996553089
4	84111	28230.174364801072	7575.3479391475
4	84116	28230.470099787708	7571.1719750947
4	84125	28236.316642693318	7569.5450478187
4	84264	28272.504362634341	7594.0253901514
4	84282	28275.375318172762	7593.4422602463
4	84292	28279.002928452688	7581.6208708571
4	84329	28289.601760085943	7591.2966199832
4	84334	28291.108506136962	7585.2196282931
4	84350	28298.994689638226	7590.3892419293
4	84468	28330.539778797912	7618.062383321
4	84484	28336.302875808503	7621.3584212826
4	84537	28354.708393510801	7604.0711800721
4	84548	28357.080458967084	7605.535029807
4	84577	28362.83570763088	7609.8764695149
4	84589	28369.862312565529	7606.4242835515
4	84650	28388.933402407115	7617.7276452866
4	84656	28391.044258276527	7618.4938628834
4	84663	28397.007360814674	7607.9335444691
4	84668	28405.823149483521	7608.1620498893
4	84684	28409.377754757016	7602.5884607785
4	84740	28424.709755523873	7613.1998927158
4	84747	28426.75213632889	7613.6369139807
4	84758	28430.51397994477	7615.6274122834
4	84765	28432.101118798175	7613.4315028018
4	84802	28442.51274801442	7619.9382778933
4	84810	28448.05220747386	7624.9298095243
4	84829	28449.479016451746	7625.5189682701
4	84837	28455.302318099792	7621.7409015595
4	84846	28457.820104854117	7623.5958777702
4	84865	28467.952785886972	7633.530945362
4	84872	28472.84597616639	7633.6544802193
4	84877	28475.355462414673	7631.2464402295
4	84890	28482.643480945707	7634.5317717336
4	84926	28493.411620195913	7636.2284103955
4	84944	28500.880571715548	7634.4200172612
4	84970	28508.933740242377	7641.9248351338
4	84992	28511.991349314432	7641.8228062338
4	85001	28516.350794514647	7640.4471266884
4	85010	28520.425880758685	7640.6250832556
4	85027	28523.515623696744	7636.9603680754
4	85039	28529.007524993538	7636.7351516178
4	85053	28534.118968970804	7637.603140881
4	85064	28537.645098172209	7638.7748968302
4	85069	28539.068293476663	7637.6001923222
4	85078	28543.327641896945	7633.3778124011
4	85107	28552.427559314864	7639.145281863
4	85158	28565.500057423062	7651.0133634462
4	85163	28566.218767513189	7646.8728434399
4	85168	28566.968991141507	7632.3514546437
4	85177	28568.554822160442	7627.6508382456
4	85213	28579.624174551861	7634.6357811519
4	85241	28593.276594090312	7647.9843387247
4	85246	28593.955007654361	7645.3919708185
4	85255	28595.089825468409	7644.7624746591
4	85266	28596.392785103201	7641.5743305086
4	85271	28597.292228908713	7640.7079829601
4	85278	28602.820636375734	7645.5255345966
4	85283	28608.041280196506	7650.7071891269
4	85288	28610.017056196312	7651.7022741107
4	85307	28621.76411649344	7652.7338274741
4	85336	28636.234523036114	7663.7864166176
4	85349	28640.841981047277	7667.3669821226
4	85375	28647.808559489579	7655.5972727825
4	85382	28650.899585689533	7654.9322659756
4	85430	28666.074065107867	7659.9287810182
4	85454	28670.65665165547	7661.7898714221
4	85712	28755.45088159793	7745.2257992055
4	85717	28756.474775099089	7739.7938246808
4	85722	28756.516505662591	7728.5754938992
4	85727	28757.483241598875	7725.5874600713
4	85733	28761.161441085004	7723.4294532557
4	85739	28761.7553594148	7722.732882287
4	85746	28762.695640586863	7711.3997431646
4	85756	28763.783504541349	7710.6299783419
4	85762	28765.362995178164	7708.3621053279
4	85769	28766.124184753401	7708.2986882366
4	85805	28780.284956279647	7716.0067704983
4	85817	28783.204947871252	7710.9601606224
4	85830	28786.925358482302	7714.1501514065
4	85850	28795.897442124808	7722.4596233514
4	85866	28802.419395758946	7728.6396586691
4	85876	28803.443142611369	7724.6323870677
4	85883	28805.241676485281	7703.2355322014
4	85901	28808.437941405175	7702.6173726512
4	86084	28869.957515825778	7748.0403942591
4	86100	28877.048637795504	7735.974617874
4	86171	28904.141285764397	7762.9737443573
4	86180	28907.117282753661	7763.3889717683
4	86193	28919.335782302502	7764.3702804263
4	86259	28938.078701965402	7772.926579206
4	86266	28939.925216938268	7772.1429010261
4	86278	28943.66729869401	7771.7475449337
4	86283	28946.546907262544	7769.3845761366
4	86294	28952.685576761993	7767.679962195
4	86311	28955.115922420557	7765.8775995691
4	86316	28955.247336789077	7757.5128660934
4	86321	28957.012329061257	7755.3378767951
4	86330	28961.679214818465	7759.9351875099
4	86402	28981.931892371533	7772.8739693193
4	86567	29034.88409801719	7824.6786876792
4	86578	29039.931460260667	7825.9912789771
4	86599	29044.687809731832	7825.5756844629
4	86606	29048.122585306551	7826.875715016
4	86611	29048.170625063108	7821.2085623512
4	86618	29049.723095431653	7820.05159597
4	86630	29056.949759205427	7822.814928527
4	86641	29061.774719295486	7824.2643595552
4	86668	29067.774080032801	7823.7088223002
4	86679	29075.516182544105	7814.8923626997
4	86700	29078.061073745448	7813.6518204575
4	86707	29080.548900498847	7801.2987470252
4	86721	29087.072563401496	7804.6066317036
4	86733	29090.66634630648	7802.0440568301
4	86747	29093.5364682689	7802.388339231
4	86758	29099.477429127349	7804.6705726362
4	86785	29108.435604242719	7813.3269127598
4	86791	29111.073474233699	7812.1215563921
4	86798	29112.616474234333	7811.5351128219
4	86810	29115.888436711665	7814.6223210276
4	86821	29118.972815805693	7815.6156047824
4	86842	29131.928492657391	7827.652938155
4	86857	29133.722908982887	7823.0972840097
4	86864	29137.346546203429	7823.0594814094
4	86875	29144.447447652693	7826.2886371162
4	86925	29157.910779184386	7832.4724200357
4	86930	29157.952917139412	7830.8099794034
4	86937	29158.674298976383	7829.2407984262
4	86942	29158.867324070806	7826.4149635461
4	86951	29165.089937481839	7815.0441100503
4	86962	29169.877961904942	7811.2931175598
4	86967	29171.69851245731	7811.7525139403
4	86981	29181.523347210612	7800.4526922451
4	87005	29187.126739265883	7804.455648459
4	87022	29192.002231856344	7800.3983300417
4	87033	29194.614061574066	7797.8947294289
4	87040	29196.616877631211	7792.4859638921
4	87055	29200.880350469243	7781.2994862889
4	87072	29204.844268104274	7779.4182220111
4	87091	29211.412346468661	7776.5778856782
4	87112	29218.941456102653	7773.6534796705
4	87162	29232.004906651213	7776.0703648839
4	87184	29238.55956857768	7768.9589958658
4	87200	29251.937752578652	7764.96077362
4	87238	29265.435745971527	7777.2941664086
4	87253	29269.056540971188	7780.8676700879
4	87258	29271.760247565711	7783.3696799229
4	87263	29273.404673021268	7779.8997679829
4	87268	29275.919420361097	7778.9455520082
4	87275	29279.672784342171	7780.8393440756
4	87286	29284.106367795151	7764.2450216615
4	87293	29289.628278409753	7769.5641452171
4	87305	29294.197409546839	7773.2903227212
4	87330	29303.69757860287	7781.9399724869
4	87389	29322.50278115528	7799.4981585333
4	87419	29335.985389888246	7810.0655064182
4	87522	29366.72199217609	7830.0234506259
4	87532	29371.760522978742	7831.2910640549
4	87551	29378.394089654063	7828.4935550691
4	87563	29380.363904797324	7818.9501309825
4	87572	29381.077430946679	7816.7752731514
4	87608	29388.942011051215	7822.1197000197
4	87615	29391.019955138656	7824.1967899388
4	87630	29397.980972186276	7828.0483490565
4	87693	29426.520874855146	7841.0772638263
4	87723	29439.826281069083	7851.1088763507
4	87731	29442.008165619413	7845.8228344338
4	87744	29446.789622378934	7849.3481315476
4	87756	29448.944214739266	7847.0810875258
4	87769	29459.398906633548	7852.9793697527
4	87794	29461.735438778176	7846.4866350602
4	87809	29467.936030546913	7847.4904633352
4	87876	29488.615636921167	7866.5242246685
4	87893	29498.104734168811	7875.6332403221
4	87898	29498.329463018518	7868.2944334236
4	87905	29505.338281593944	7871.7971419554
4	87914	29506.817505148955	7871.2435546977
4	87928	29510.763852721568	7870.0125851499
4	87935	29513.447729435758	7867.7297667559
4	87941	29515.967038280045	7868.7543778556
4	87948	29517.718792644003	7866.1793166062
4	87955	29523.478388620799	7859.6063486319
4	88005	29534.380365053666	7868.8280321498
4	88010	29534.586217572283	7867.2959322079
4	88019	29536.324233708964	7862.3341436996
4	88032	29539.341899837145	7864.5231288044
4	88037	29541.548769050146	7858.1073686837
4	88044	29545.059091219866	7844.8468011972
4	88051	29550.381803026231	7842.8561426421
4	88072	29553.772876739995	7833.2321542465
4	88081	29555.590765885002	7831.4116076836
4	88094	29560.062187710754	7833.632782238
4	88109	29565.35000167847	7802.9007113249
4	88128	29572.018538782928	7809.4653676702
4	88137	29574.300550067776	7798.2671426571
4	88160	29582.651515599499	7786.2572560005
4	88172	29585.237081500162	7783.7332017844
4	88185	29587.878619452554	7783.5794300953
4	88286	29617.365732262792	7811.4249310517
4	88306	29618.781964763234	7799.439484199
4	88314	29625.518693134468	7802.5029277647
4	88321	29627.674682070943	7789.1402359612
4	88347	29638.250789611909	7797.969338724
4	88378	29646.299945467462	7802.3065696999
4	88389	29647.730742608988	7788.62144769
4	88470	29671.959121725449	7812.1283644427
4	88475	29673.334097897738	7812.860454153
4	88482	29675.300364783116	7814.6102400358
4	88494	29683.652460084652	7822.5505678298
4	88501	29685.881414815483	7823.799382808
4	88509	29689.016341387678	7821.9882911639
4	88514	29689.729479568149	7818.4853716092
4	88521	29694.119102341443	7806.2082706185
4	88528	29697.731823071192	7803.7496726768
4	88544	29705.228452956496	7803.6501935357
4	88557	29708.548906480722	7805.5623616796
4	88562	29709.416684636449	7804.4168730693
4	88567	29711.012384580636	7798.2496237297
4	88574	29716.664933802787	7800.5812253409
4	88584	29721.393064611827	7801.3741313166
4	88591	29724.328970668107	7798.9865267641
4	88596	29728.873548080514	7794.6979520917
4	88605	29735.077421183391	7800.5368515109
4	88616	29736.379914570402	7796.6935339481
4	88621	29737.570896842135	7791.7071368621
4	88631	29739.240675899056	7788.6552322663
4	88641	29739.832702698127	7782.9717705019
4	88648	29740.38949545788	7750.9067508596
4	88659	29749.318038985466	7754.5921924495
4	88672	29754.049925715985	7757.4307523539
4	88679	29755.739532108297	7758.6990087947
4	88693	29764.425049291018	7762.1419544859
4	88698	29766.444251672364	7758.2349560356
4	88703	29767.587534696325	7752.122066144
4	88708	29772.614902612503	7749.4311231651
4	88718	29776.664503591426	7749.6335175759
4	88729	29784.296060253537	7744.6128703129
4	88738	29786.663953760174	7746.2350854998
4	88758	29797.716284654564	7754.8783879629
4	88763	29799.677818189372	7756.0944372316
4	88772	29802.697765735437	7750.5083081551
4	88795	29811.905761857491	7759.5622103274
4	88802	29812.472285171404	7747.6346900659
4	88838	29824.761428149439	7756.6791828842
4	88850	29826.617555992885	7757.1384313535
4	88855	29827.709053059602	7742.4346059311
4	88860	29829.471395970262	7732.8283028358
4	88867	29832.0839580245	7724.6518554006
4	88910	29843.797589098975	7701.7004273801
4	88916	29844.217933305861	7691.6494848669
4	88926	29852.366356299288	7698.0441813669
4	88935	29860.488374020932	7705.9375053464
4	88951	29864.798168370594	7704.3146406794
4	89042	29897.602958964764	7730.4983874347
4	89047	29898.097215183497	7730.8030400741
4	89057	29901.930486224854	7727.6984180163
4	89098	29910.267299696485	7733.4668645751
4	89129	29923.922765726019	7744.3388124808
4	89154	29929.563757637996	7747.6278307481
4	89174	29931.401726334923	7738.3641274031
4	89180	29932.60022393912	7738.0476887158
4	89185	29935.316404672319	7739.2817306857
4	89192	29936.659057714711	7738.9633144084

