version 2
run Third-n4-1-20191016-17:04:40-2844
attr configname Third-n4
attr datetime 20191016-17:04:40
attr experiment Third-n4
attr inifile omnetpp.ini
attr iterationvars ""
attr iterationvarsf ""
attr measurement ""
attr network org.omnetpp.queueing.Pizza
attr processid 2844
attr repetition 1
attr replication ""
attr resultdir results
attr runnumber 1
attr seedset 1
param **.PS.maxInventoriedPS 4
param **.U1.interArrivalTime exponential(4s)
param **.U2.interArrivalTime exponential(6s)
param **.PS.serviceTimeForInventoryU1 exponential(1.4s)
param **.PS.serviceTimeForInventoryU2 exponential(1.4s)
param **.PS.serviceTimeDirectU1 exponential(1.8s)
param **.PS.serviceTimeDirectU2 exponential(1.8s)
param **.PS.probabilityProducing 0.8
param **.CS.serviceTimeU1 exponential(2.3s)
param **.CS.serviceTimeU2 exponential(2.3s)

vector 0 Pizza.EntryQueueU1 queueLength:vector ETV
attr interpolationmode sample-hold
attr title "queue length, vector"
vector 1 Pizza.CS queueLength:vector ETV
attr interpolationmode sample-hold
attr title "queue length, vector"
vector 2 Pizza.EntryQueueU2 queueLength:vector ETV
attr interpolationmode sample-hold
attr title "queue length, vector"
vector 3 Pizza.sink lifeTime:vector ETV
attr interpolationmode none
attr title "lifetime of arrived jobs, vector"
attr unit s
vector 4 Pizza.sink lifeTimeU1:vector ETV
attr interpolationmode none
attr title "lifetime of arrived jobs, vector"
attr unit s
vector 5 Pizza.sink lifeTimeU2:vector ETV
attr interpolationmode none
attr title "lifetime of arrived jobs, vector"
attr unit s
0	0	0	0
0	8	7.254924258687	1
0	10	7.84011273442	0
0	16	8.332140089392	1
0	18	8.815258635677	0
0	35	15.737672235488	1
0	38	17.604517254212	0
0	45	18.181765079521	1
0	47	21.070232576895	0
0	147	74.600656381611	1
0	149	75.551797822405	2
0	155	80.243092969245	1
0	161	82.162461521528	0
0	172	85.203558054872	1
0	174	86.254295509188	2
0	176	86.686126297255	3
0	177	89.374834686535	2
0	183	89.735673709042	3
0	186	92.10143578565	2
0	194	92.453121003807	3
0	196	93.056254985593	4
0	199	95.436979009704	3
0	206	95.949766065417	4
0	207	97.468410029384	3
0	212	97.813368128902	2
0	217	98.90390658328	1
0	223	99.06274094205	2
0	224	99.319626588642	1
0	228	103.288388996334	2
0	234	105.081426578122	3
0	236	107.239303814484	2
0	243	109.639152364313	1
0	250	110.259905888112	2
0	255	114.842375422908	1
0	261	115.122700884519	0
0	279	118.785939615151	1
0	280	122.4946019452	0
0	299	124.692479174677	1
0	304	129.630791764392	2
0	307	133.024658212471	1
0	314	133.536654826239	2
0	319	136.742480215623	3
0	321	137.499094031313	4
0	322	139.12253935718	3
0	328	140.057330430811	4
0	330	140.90988587338	5
0	332	145.325738203089	4
0	338	145.683575994699	5
0	341	148.52269525141	6
0	342	148.565032590923	5
0	350	149.458342074147	6
0	352	149.538663676402	7
0	353	151.424268411736	6
0	358	151.490312548937	5
0	364	151.557463295471	6
0	365	151.738104923235	5
0	370	152.344502440669	4
0	375	156.588820763118	3
0	381	157.928883233795	2
0	386	159.173548051313	1
0	390	159.422713386116	2
0	394	161.257184899744	3
0	396	162.625794260916	4
0	399	163.686734006144	5
0	400	164.364526993462	4
0	408	167.483519851605	5
0	411	168.945522839659	4
0	418	169.72066008866	5
0	423	175.311109034529	4
0	429	178.182048802549	3
0	434	178.211110393744	2
0	441	179.013003871442	1
0	448	179.647979552639	2
0	449	179.681816009465	1
0	457	180.353107819791	2
0	458	181.684521137794	1
0	469	184.791259105685	0
0	499	194.382005552632	1
0	501	194.845157946893	2
0	507	198.312734512849	3
0	511	201.156258417551	4
0	513	202.127859540489	5
0	514	203.290864143575	4
0	519	204.717278704411	3
0	524	204.875144720442	2
0	531	205.425278748031	1
0	536	205.655931248993	0
0	540	207.59907588898	1
0	544	208.307005683851	2
0	546	208.707647749788	3
0	548	208.864732563199	2
0	554	210.841354049335	1
0	560	215.241639242685	2
0	565	216.463919831143	3
0	571	218.493822885629	2
0	577	219.773863738696	1
0	584	222.380682974241	2
0	588	226.619238097805	1
0	594	227.421627308905	0
0	612	232.752438324213	1
0	614	233.51686565772	2
0	620	235.268264559321	3
0	624	235.848733701003	4
0	625	237.911752753446	3
0	632	238.666878215677	4
0	633	239.327044922083	3
0	639	240.796324046965	2
0	647	242.404755448273	1
0	652	243.377007010132	0
0	663	245.687403651851	1
0	665	246.792996282903	2
0	667	249.238415452478	1
0	673	250.531159427631	0
0	686	254.243469768226	1
0	693	257.843972215783	2
0	694	258.197237504084	1
0	700	258.814167103354	0
0	727	264.431711579784	1
0	735	275.600650749495	0
0	751	279.479085616307	1
0	755	282.018379821974	0
0	762	285.024611301181	1
0	763	285.601305851512	0
0	801	294.256149628076	1
0	803	295.536421548541	2
0	804	295.638265871798	1
0	809	296.209332782893	0
0	816	297.761813164541	1
0	823	301.08590608299	0
0	842	303.856542820311	1
0	843	306.384743240391	0
0	852	306.7841915623	1
0	856	307.061729286876	2
0	859	308.106471503925	1
0	869	310.919589886539	0
0	880	313.742124091798	1
0	882	314.572083833198	2
0	885	315.274125943065	3
0	886	315.701599926304	2
0	892	317.1842902969	1
0	898	317.790161066525	2
0	899	318.045315362393	1
0	905	318.390105418715	2
0	912	320.907681152998	3
0	919	322.529247428699	4
0	922	323.574294739417	3
0	927	323.705524744901	2
0	939	325.345788187847	3
0	940	325.910990957625	2
0	945	326.475089781792	1
0	953	328.247288128668	2
0	954	328.711491537225	1
0	961	332.494142290342	2
0	963	333.119316417695	3
0	965	334.123684089825	4
0	967	334.321705819939	5
0	969	337.252184665908	6
0	972	338.896473469169	5
0	978	339.751012989975	4
0	983	339.944750849749	3
0	988	340.943070010952	2
0	995	345.576339855929	1
0	1001	346.425259162007	2
0	1002	346.468279419948	1
0	1008	346.841120243712	2
0	1013	349.423906918103	1
0	1020	351.704181680306	2
0	1021	352.806550180983	1
0	1028	353.672548775195	0
0	1037	356.967206172233	1
0	1038	357.143802598289	0
0	1060	359.330624492673	1
0	1066	367.558005241933	0
0	1085	372.861685333248	1
0	1086	373.025340252708	0
0	1105	378.337659875194	1
0	1106	380.841621139413	0
0	1113	381.581128582176	1
0	1115	382.49328175621	2
0	1117	383.784286010384	3
0	1119	384.922941345957	4
0	1121	385.944526212052	5
0	1123	387.160710236912	6
0	1125	391.32307158885	7
0	1126	391.377102952155	6
0	1131	391.891698463782	5
0	1138	393.525449141266	4
0	1149	396.871008569908	5
0	1150	397.211160894379	4
0	1156	397.24217353022	5
0	1158	398.314415823857	4
0	1164	400.038806634248	5
0	1165	400.105196012335	4
0	1171	401.030212246528	5
0	1179	402.222773960408	6
0	1182	403.852910611203	5
0	1187	404.048376187359	4
0	1193	405.079422088704	3
0	1202	408.81546147943	2
0	1209	414.014273384349	3
0	1210	414.344477053464	2
0	1216	415.313901481393	3
0	1220	418.340329934589	2
0	1225	418.52807841651	1
0	1232	419.586030438833	2
0	1234	421.148914885971	1
0	1239	421.213721066798	0
0	1247	422.040298455369	1
0	1249	424.049417287924	2
0	1250	424.447364289771	1
0	1255	425.83246795995	0
0	1261	426.00786246048	1
0	1262	427.207855842955	0
0	1273	429.529173212356	1
0	1274	429.769824795147	0
0	1282	435.576606960496	1
0	1285	436.439835713134	0
0	1297	439.431326941192	1
0	1299	442.277795835085	0
0	1316	445.789219894418	1
0	1320	447.575511686109	0
0	1343	455.238963623215	1
0	1345	455.747829907257	2
0	1346	456.573655828854	1
0	1351	456.938786231444	0
0	1377	464.554257510241	1
0	1378	464.602000817556	0
0	1384	467.426416882869	1
0	1386	467.552169046947	2
0	1388	468.852960095547	1
0	1394	469.010833999389	2
0	1396	469.121499741046	3
0	1398	469.743172287576	4
0	1399	471.267903155345	3
0	1406	472.696179373477	4
0	1411	475.966638331103	5
0	1412	476.281129923692	4
0	1421	477.866110311039	3
0	1427	478.378793080441	4
0	1432	481.291964330923	5
0	1433	481.805100637615	4
0	1443	483.515777856213	5
0	1447	486.932275029135	6
0	1448	488.648702520227	5
0	1454	488.859262230546	4
0	1460	489.727343900357	3
0	1466	491.028951137881	4
0	1468	491.459326032936	5
0	1469	491.875970108253	4
0	1475	493.594245865447	5
0	1477	494.324238483817	6
0	1479	495.143147180278	7
0	1480	495.773853094985	6
0	1486	496.406134305943	5
0	1492	497.393355445203	4
0	1498	497.458169397634	5
0	1499	497.515306974669	4
0	1509	500.983609779772	3
0	1515	501.821967030797	4
0	1516	502.369719611231	3
0	1521	503.203949333421	2
0	1527	505.431248417613	3
0	1528	506.526181577426	2
0	1533	508.526896705605	1
0	1540	509.052730049198	2
0	1541	510.296185451107	1
0	1547	510.935528463661	2
0	1549	511.671139478531	3
0	1550	512.429559510391	2
0	1555	519.418356064989	1
0	1563	524.09423634282	2
0	1565	524.147129941989	3
0	1567	524.802602830957	2
0	1574	527.814846550342	1
0	1579	528.155496860583	0
0	1612	539.878448546356	1
0	1613	540.373721569151	0
0	1632	548.045880586652	1
0	1634	548.604472983356	2
0	1635	548.624877975987	1
0	1642	550.308614044069	0
0	1651	550.62649293138	1
0	1653	555.091193507849	2
0	1656	558.349021675387	1
0	1661	558.681533964979	0
0	1673	559.879673814672	1
0	1676	563.403507092802	0
0	1682	563.777351310279	1
0	1684	564.140358687975	0
0	1696	565.975379637194	1
0	1697	566.150680889146	0
0	1705	567.125412859401	1
0	1710	569.35804158052	2
0	1711	569.56924578378	1
0	1721	571.102985647613	2
0	1723	571.339639171427	3
0	1724	573.836619663107	2
0	1730	574.300345020504	1
0	1735	574.653982632504	0
0	1743	576.797350365996	1
0	1744	577.69928538489	0
0	1762	581.287708506758	1
0	1764	586.127331067757	0
0	1771	586.257378456925	1
0	1774	586.962576361799	0
0	1793	593.461080970909	1
0	1799	599.389385588054	2
0	1801	600.294991606361	3
0	1802	601.912179769789	2
0	1810	603.103242670139	1
0	1815	604.073138570478	0
0	1830	611.225672414866	1
0	1831	614.141734422732	0
0	1845	616.75374039277	1
0	1847	618.53971799833	2
0	1857	625.064143909774	1
0	1862	625.555200119181	0
0	1883	630.163901824984	1
0	1887	630.730898739256	2
0	1888	630.852928247689	1
0	1895	632.483898321516	0
0	1904	635.830167112392	1
0	1906	636.287616651474	2
0	1913	641.1743571358	1
0	1918	641.279885716517	0
0	1937	645.239165693541	1
0	1938	645.89357756479	0
0	1954	650.934254291364	1
0	1956	652.570173733154	2
0	1958	654.310460967531	1
0	1965	655.844142937924	2
0	1966	657.580851273349	1
0	1972	660.892373103103	2
0	1974	662.195764860089	3
0	1977	664.344471347336	4
0	1979	664.728569415111	5
0	1980	666.329981292622	4
0	1985	666.927701487365	3
0	1990	668.6000188114	2
0	1995	668.676484805359	1
0	2000	669.757036667103	0
0	2015	675.5950736217	1
0	2020	681.353941763723	0
0	2026	681.559856186169	1
0	2027	681.649964543275	0
0	2033	681.958881483406	1
0	2035	682.477216514185	0
0	2063	691.589931227143	1
0	2066	694.72968702965	0
0	2072	695.194002861608	1
0	2075	696.409205224526	2
0	2076	697.31452531281	1
0	2082	697.912773844216	2
0	2083	698.18391251617	1
0	2090	699.989467997733	2
0	2093	702.381819313047	3
0	2096	703.010476087552	2
0	2103	704.868821509119	3
0	2105	705.405215536841	4
0	2111	707.674669005272	5
0	2113	708.374118245134	6
0	2114	709.902119679385	5
0	2121	712.094449874489	6
0	2123	714.851513763367	7
0	2127	716.776811202664	8
0	2128	719.908627521495	7
0	2134	721.21010438922	8
0	2140	726.48788619237	7
0	2150	729.546373222509	6
0	2156	731.216154800064	7
0	2160	736.383639942264	6
0	2165	736.401958316518	5
0	2170	738.280191475108	4
0	2177	738.993675300108	5
0	2178	739.174429239132	4
0	2187	743.153616317064	3
0	2196	746.857114429164	4
0	2197	746.88646285563	3
0	2203	747.434160211994	4
0	2204	750.02094222758	3
0	2209	750.666391146458	2
0	2216	751.913631673432	1
0	2222	755.108302063239	0
0	2230	756.486462868104	1
0	2232	757.880245253146	2
0	2235	758.864359904701	3
0	2239	759.48777363324	4
0	2241	760.152999968593	5
0	2243	762.818110750031	4
0	2250	763.47802647088	5
0	2251	764.445149695425	4
0	2256	764.595481757471	3
0	2262	765.795366938919	2
0	2268	766.152194207513	1
0	2273	767.360443106446	0
0	2283	769.755455190943	1
0	2284	771.701651601964	0
0	2290	771.900736532813	1
0	2292	772.782994929858	0
0	2300	773.226085272163	1
0	2302	774.187388003815	0
0	2317	775.242830885431	1
0	2318	775.924507050321	0
0	2324	776.434365151719	1
0	2325	776.729431607839	0
0	2331	776.803732990287	1
0	2333	777.104631507684	2
0	2334	778.268769489131	1
0	2342	782.095358754564	0
0	2353	784.838561954489	1
0	2359	787.433151710734	2
0	2361	789.410818211632	3
0	2363	789.818856110517	2
0	2370	790.446967255691	3
0	2371	791.058773973956	2
0	2377	792.852661821012	1
0	2385	798.310378935103	0
0	2397	801.600662028644	1
0	2398	802.487275371197	0
0	2425	806.266051333486	1
0	2430	808.466041311965	0
0	2445	811.180706541115	1
0	2453	817.153588075677	2
0	2455	819.39457838683	3
0	2456	819.841259447067	2
0	2461	820.24641258185	1
0	2468	821.051980272768	2
0	2470	824.294713145493	1
0	2475	825.574065202838	0
0	2491	828.497111537224	1
0	2494	832.451244159854	0
0	2504	835.219434836457	1
0	2509	844.055385465607	0
0	2527	851.469894700034	1
0	2529	851.732471296376	2
0	2530	852.367725323117	1
0	2535	853.924177446435	0
0	2545	859.320148438195	1
0	2547	859.579222438455	2
0	2549	859.797024141859	3
0	2550	859.872738095703	2
0	2556	860.278003180895	3
0	2557	861.136552312399	2
0	2565	863.384319206254	1
0	2572	865.853466474392	2
0	2573	866.180597746186	1
0	2578	866.400010741048	0
0	2592	870.269447551821	1
0	2593	871.376067825582	0
0	2615	873.252850848154	1
0	2617	875.180944921537	2
0	2619	875.825563889254	3
0	2621	878.363485113539	4
0	2622	881.427838820925	3
0	2628	882.025571269669	4
0	2630	882.470086906006	3
0	2640	887.380894690612	4
0	2641	887.528722418874	3
0	2646	887.631096134807	2
0	2651	887.636989777708	1
0	2657	888.723020230122	0
0	2664	889.673058308319	1
0	2666	889.799421714225	2
0	2672	892.063649120817	1
0	2683	896.550927080327	2
0	2684	896.844572317635	1
0	2690	897.526496674676	2
0	2693	898.538553315778	3
0	2694	898.573958918454	2
0	2699	898.92679980933	1
0	2704	899.096928736368	0
0	2711	900.369984664086	1
0	2712	900.467270091285	0
0	2755	905.218313310052	1
0	2757	905.565788532299	2
0	2764	912.213800867975	1
0	2770	912.561352837844	2
0	2773	913.170276069409	1
0	2778	913.209046881557	0
0	2782	913.932993296548	1
0	2788	915.967366161734	2
0	2792	916.629714745512	3
0	2794	917.112948783467	4
0	2798	919.271558012326	5
0	2799	920.733364033585	4
0	2804	921.623861719648	3
0	2809	922.415961085916	2
0	2819	924.994035435613	3
0	2821	925.15619316622	4
0	2822	926.552976992098	3
0	2827	928.030648855912	2
0	2835	930.659701458058	3
0	2844	933.349669042637	4
0	2847	934.629441761007	5
0	2848	935.04026977076	4
0	2855	935.920306162074	3
0	2861	936.221581218434	4
0	2863	936.837885905133	5
0	2874	940.368833558575	4
0	2879	940.720972519773	3
0	2884	940.902831335902	2
0	2889	941.049655440535	1
0	2896	944.01083572999	0
0	2938	955.899332972285	1
0	2939	956.314939158289	0
0	2953	960.266674510469	1
0	2954	960.670352076695	0
0	2960	961.423807791723	1
0	2963	962.143774110452	2
0	2965	963.883210930275	3
0	2966	964.028602170386	2
0	2972	964.045915288322	3
0	2973	964.12901469934	2
0	2980	964.905706208385	3
0	2982	967.451628288497	2
0	2988	968.622367020984	3
0	2991	969.327041385189	4
0	2992	969.661755117209	3
0	2999	971.053817395889	2
0	3006	973.169673214544	3
0	3010	975.801258827155	2
0	3016	977.465652006626	1
0	3023	978.868268430926	0
0	3035	980.712982229748	1
0	3036	981.787087653529	0
0	3058	988.079020942308	1
0	3059	990.090971940208	0
0	3083	999.469728559156	1
0	3084	1002.034276110958	0
0	3091	1003.996550935637	1
0	3092	1004.170250247582	0
0	3106	1009.269223642686	1
0	3108	1009.491755116079	2
0	3109	1009.510303276473	1
0	3116	1012.619240500907	2
0	3117	1013.760670618159	1
0	3126	1016.472202451344	2
0	3128	1017.870878162947	3
0	3129	1017.930938767028	2
0	3136	1019.190427052145	1
0	3142	1019.713397706476	0
0	3177	1029.97270660045	1
0	3178	1030.457606962747	0
0	3185	1033.597893766511	1
0	3191	1035.516217364287	2
0	3192	1035.652224995485	1
0	3202	1040.244645683331	0
0	3218	1042.970249464008	1
0	3219	1045.635631361048	0
0	3252	1054.812443618291	1
0	3257	1057.674811264832	0
0	3269	1060.112359287658	1
0	3273	1063.677031569336	2
0	3275	1063.823970996721	3
0	3277	1064.892122374167	4
0	3278	1065.387113341028	3
0	3284	1065.785607247406	4
0	3286	1065.83428933752	5
0	3288	1067.847713600678	4
0	3294	1069.981603588125	5
0	3298	1072.287278620297	6
0	3300	1075.459093995214	7
0	3301	1081.614313659139	6
0	3309	1086.029006919872	5
0	3315	1086.036549353084	6
0	3316	1086.734444976644	5
0	3321	1087.803174995044	4
0	3326	1088.01959183784	3
0	3332	1088.692573218295	4
0	3334	1089.26796495669	5
0	3336	1089.566631652019	6
0	3337	1090.757101459593	5
0	3341	1091.789421776948	6
0	3346	1097.452504578326	5
0	3350	1099.620514793931	6
0	3357	1101.097777055144	7
0	3358	1101.471230177682	6
0	3364	1102.456194353262	5
0	3372	1105.203573779774	4
0	3378	1105.562511960988	5
0	3383	1108.121271684241	4
0	3391	1111.100442093684	3
0	3397	1113.287030055929	2
0	3402	1113.348140826943	1
0	3409	1113.629217376443	0
0	3420	1114.940433735713	1
0	3421	1114.975362179215	0
0	3434	1118.601958419585	1
0	3438	1119.487496325585	2
0	3439	1120.339493352551	1
0	3447	1124.051579644806	0
0	3453	1124.715916506959	1
0	3455	1127.568205387641	0
0	3466	1128.996778922291	1
0	3470	1134.151420289469	0
0	3480	1137.990394786253	1
0	3481	1138.900754490704	0
0	3488	1142.586747286923	1
0	3489	1142.854354674744	0
0	3506	1145.251087048321	1
0	3507	1145.595637344337	0
0	3513	1145.907641301793	1
0	3517	1150.634127161338	0
0	3528	1153.43756646742	1
0	3529	1153.734355110545	0
0	3544	1160.096631455802	1
0	3545	1166.406818053572	0
0	3556	1167.603468015076	1
0	3558	1168.120888016834	0
0	3583	1176.213063954004	1
0	3584	1177.26778623691	0
0	3599	1182.276189935492	1
0	3603	1186.326038986849	2
0	3604	1187.127438900843	1
0	3610	1188.313953965923	0
0	3621	1193.210241764486	1
0	3625	1193.734195738345	2
0	3627	1194.565097291532	3
0	3632	1195.5275763626	2
0	3637	1195.529335122204	1
0	3643	1196.46956975035	0
0	3651	1201.61288760874	1
0	3652	1201.682452391715	0
0	3660	1202.825745646818	1
0	3663	1203.841247394675	2
0	3665	1205.16813431963	3
0	3666	1205.719527637537	2
0	3677	1209.226608763329	1
0	3683	1210.393211005565	0
0	3706	1215.51540318221	1
0	3707	1215.831611281383	0
0	3713	1216.628398424326	1
0	3716	1219.646017266271	0
0	3723	1220.696770804736	1
0	3728	1222.897074348928	2
0	3730	1224.068595895917	3
0	3731	1224.532969632919	2
0	3736	1225.820986645304	1
0	3741	1226.089752734821	0
0	3770	1232.168038037863	1
0	3772	1232.937023878538	2
0	3774	1233.230254864615	3
0	3776	1234.048439942812	4
0	3780	1235.802054529266	5
0	3781	1236.456317152041	4
0	3789	1240.92904520455	5
0	3790	1242.092202468923	4
0	3796	1244.312301188509	3
0	3804	1246.362703654275	2
0	3811	1246.989641452525	3
0	3814	1248.133803936374	2
0	3820	1248.812361673726	3
0	3825	1249.960331881436	4
0	3829	1251.957059861913	5
0	3830	1255.469373762939	4
0	3835	1255.729979142101	3
0	3843	1258.211802423167	4
0	3844	1258.415960202494	3
0	3850	1258.797056373328	4
0	3853	1260.425438503867	5
0	3854	1260.894974075945	4
0	3860	1261.408881724348	5
0	3861	1262.560661786385	4
0	3866	1263.807246440552	3
0	3872	1265.603139126694	2
0	3878	1266.088963451127	3
0	3879	1268.432906116624	2
0	3891	1271.1017223191	1
0	3900	1274.028885096796	2
0	3901	1274.400902229621	1
0	3906	1275.53353985129	0
0	3912	1275.683928241785	1
0	3914	1277.077942157105	0
0	3920	1277.341169838201	1
0	3923	1279.322360395051	2
0	3924	1279.386520403057	1
0	3932	1282.06031891141	0
0	3938	1283.279970590169	1
0	3941	1288.250199391345	2
0	3942	1288.373266511195	1
0	3948	1289.710987090977	0
0	3974	1292.903056605081	1
0	3976	1293.121272465151	2
0	3977	1294.183244579878	1
0	3983	1296.186390179552	2
0	3985	1297.896417733737	1
0	3990	1298.150867641613	0
0	3996	1298.362710609507	1
0	3997	1298.896247963567	0
0	4007	1301.183328278842	1
0	4008	1302.227088771622	0
0	4021	1306.928441067094	1
0	4023	1307.530101955503	2
0	4024	1308.486559123977	1
0	4031	1308.865253094154	2
0	4034	1309.919100742579	1
0	4042	1316.098774151713	0
0	4070	1323.141834971471	1
0	4071	1324.709274468807	0
0	4094	1331.782078154267	1
0	4101	1336.636178911025	2
0	4103	1338.641437461535	3
0	4104	1339.009521897511	2
0	4110	1340.372957506256	1
0	4116	1341.771704296862	0
0	4134	1347.398337658005	1
0	4136	1353.360337305908	2
0	4140	1355.519312437131	3
0	4141	1356.617683281475	2
0	4146	1358.700582070901	1
0	4153	1361.970279074049	2
0	4154	1363.223738782345	1
0	4159	1363.312514185692	0
0	4178	1368.619374348127	1
0	4181	1370.358515403144	0
0	4191	1372.998458841699	1
0	4194	1375.082613195899	0
0	4210	1384.069798551679	1
0	4213	1386.103728171376	0
0	4222	1386.4163452875	1
0	4228	1389.572724519941	2
0	4237	1398.609473144685	1
0	4243	1399.090422305748	2
0	4244	1399.631032593529	1
0	4250	1400.036493537683	2
0	4253	1400.733520385053	3
0	4256	1401.306256784199	4
0	4257	1408.454244705613	3
0	4263	1408.959428468463	2
0	4270	1410.920991022875	1
0	4275	1411.566262855454	0
0	4294	1415.130042714656	1
0	4296	1416.295954352652	2
0	4302	1417.546602185658	3
0	4304	1417.587500374312	4
0	4305	1417.652779079546	3
0	4310	1417.759841627584	2
0	4316	1418.789027294771	1
0	4322	1419.511774329429	0
0	4352	1431.310200519461	1
0	4353	1433.85933670564	0
0	4370	1442.43452559884	1
0	4372	1443.254214073611	2
0	4373	1445.755886408107	1
0	4378	1446.227287493639	0
0	4390	1448.504832382746	1
0	4396	1454.590656801191	0
0	4413	1463.612899389307	1
0	4415	1463.857666709175	2
0	4416	1467.792103390465	1
0	4422	1469.231302929649	0
0	4439	1474.238995051869	1
0	4446	1479.153273893553	0
0	4462	1481.130468514096	1
0	4464	1481.877591889128	0
0	4478	1483.934141269244	1
0	4483	1484.930098960972	0
0	4508	1491.277335450685	1
0	4510	1491.293549505338	2
0	4514	1492.165834960555	3
0	4516	1492.534027194551	4
0	4519	1493.928783852035	3
0	4525	1494.190038173606	4
0	4527	1494.703194240741	5
0	4529	1495.311379105233	6
0	4531	1495.354405696021	7
0	4533	1498.88529273317	6
0	4540	1500.218483902624	5
0	4549	1504.097102062257	4
0	4555	1504.326990777308	5
0	4559	1507.890052299448	4
0	4565	1508.26478077096	5
0	4567	1509.065424381138	6
0	4568	1509.512668373352	5
0	4573	1510.051567103032	4
0	4587	1513.775837307368	5
0	4588	1514.106435590749	4
0	4596	1515.678609649433	5
0	4602	1521.096854944113	6
0	4604	1521.411397730238	7
0	4605	1522.161617354162	6
0	4610	1522.240365153545	5
0	4617	1524.460577828193	4
0	4623	1526.391848402702	3
0	4628	1526.654233631282	2
0	4633	1526.856743950106	1
0	4639	1528.51108079627	0
0	4654	1533.839148296387	1
0	4656	1534.777404834678	0
0	4664	1535.067911729258	1
0	4668	1537.153358285728	2
0	4669	1537.78957488775	1
0	4677	1540.076774413803	0
0	4683	1542.599752786877	1
0	4688	1543.775093982077	2
0	4689	1545.984937028331	1
0	4695	1547.415901250819	2
0	4697	1547.4200351187	3
0	4698	1548.680815945804	2
0	4704	1551.142143519428	1
0	4710	1552.340364161931	0
0	4717	1555.721774224295	1
0	4718	1556.998455163768	0
0	4729	1558.837296555341	1
0	4731	1562.598625489318	2
0	4733	1564.045627219717	1
0	4744	1566.459568656601	0
0	4750	1567.269746588017	1
0	4753	1568.610231269604	0
0	4780	1574.588621871156	1
0	4782	1576.963804482184	2
0	4783	1577.570737006847	1
0	4789	1578.533223732188	0
0	4803	1581.547453629344	1
0	4805	1582.054123195502	2
0	4807	1582.086009950058	3
0	4808	1587.212362493147	2
0	4813	1587.985833218901	1
0	4823	1589.840018259012	0
0	4831	1591.326149510337	1
0	4833	1594.329266522219	2
0	4836	1595.022422292421	1
0	4841	1595.368199318013	0
0	4858	1601.598290059972	1
0	4860	1602.846900784626	0
0	4882	1606.604337558917	1
0	4884	1608.001551288153	2
0	4885	1610.242678989334	1
0	4892	1611.855216517595	2
0	4895	1615.317997226501	3
0	4897	1616.589449212656	4
0	4898	1616.811365717569	3
0	4903	1616.836216242251	2
0	4908	1617.383394553486	1
0	4919	1621.403771036933	0
0	4950	1627.804536557903	1
0	4952	1627.965373263475	2
0	4956	1629.481180878969	1
0	4964	1631.861481024237	2
0	4965	1632.007498196458	1
0	4970	1632.109673004615	0
0	4976	1633.636160937284	1
0	4978	1635.127936239635	2
0	4979	1635.979504846859	1
0	4989	1639.806814730819	0
0	5001	1645.36132704386	1
0	5002	1646.074023253361	0
0	5009	1647.208689672475	1
0	5011	1647.633673763458	0
0	5039	1655.731980836084	1
0	5043	1658.849045818757	2
0	5044	1659.967007833755	1
0	5050	1661.141699504497	0
0	5072	1669.405674217673	1
0	5075	1671.504651163134	0
0	5099	1691.477983824284	1
0	5100	1692.402789749152	0
0	5109	1693.733617304006	1
0	5114	1695.130780752272	2
0	5115	1695.470421557322	1
0	5121	1697.628401654186	0
0	5127	1697.631894803352	1
0	5129	1697.841748220059	2
0	5132	1698.244427558695	1
0	5137	1699.764400332222	0
0	5143	1699.803016649206	1
0	5147	1703.108280770523	2
0	5150	1705.128070432447	3
0	5151	1707.404776597903	2
0	5158	1709.083765951624	3
0	5160	1709.373128303907	4
0	5162	1710.408571953619	3
0	5169	1711.997240786902	4
0	5170	1712.081883073336	3
0	5176	1712.303397362885	4
0	5183	1717.283165518438	5
0	5184	1719.234415958603	4
0	5191	1720.184996591165	5
0	5192	1720.236718501447	4
0	5201	1721.068577077749	5
0	5202	1721.722227102899	4
0	5207	1721.748106317644	3
0	5216	1724.667232472037	2
0	5221	1724.925530949896	1
0	5226	1726.020681368643	0
0	5232	1726.063955371324	1
0	5235	1728.696264282383	2
0	5239	1732.096305479652	1
0	5245	1732.845437489363	2
0	5249	1736.241117921059	3
0	5252	1737.974261565562	4
0	5253	1738.952900194614	3
0	5258	1739.024673634727	2
0	5266	1743.675579869257	1
0	5271	1745.633213261342	0
0	5287	1747.979787528503	1
0	5288	1748.838637505761	0
0	5306	1752.969718236808	1
0	5310	1754.880341928737	2
0	5314	1756.283880603639	3
0	5315	1756.561006941678	2
0	5322	1759.522629207997	1
0	5327	1760.568123182824	0
0	5333	1761.641454942057	1
0	5335	1762.754991580016	2
0	5336	1762.913299613205	1
0	5342	1765.295201221321	0
0	5349	1765.954177348168	1
0	5353	1767.058936239011	0
0	5392	1778.869594065678	1
0	5393	1781.486276374322	0
0	5400	1782.348979472563	1
0	5404	1784.229623699597	2
0	5406	1785.400606016567	3
0	5408	1788.371515806828	4
0	5409	1788.804331112053	3
0	5415	1789.457120669578	4
0	5418	1789.949917156384	5
0	5424	1792.664235476052	4
0	5430	1793.816907244059	5
0	5435	1794.314497318362	6
0	5437	1795.132447068327	7
0	5438	1797.442311893856	6
0	5445	1798.15753746741	7
0	5447	1798.810861513699	8
0	5449	1800.800529005249	9
0	5452	1802.950325337961	8
0	5461	1804.541534941688	7
0	5470	1805.589656337301	6
0	5477	1807.809294221372	5
0	5483	1808.199313132349	4
0	5489	1808.271231383369	5
0	5495	1809.321836349622	6
0	5498	1809.645177147199	7
0	5501	1812.303097563177	6
0	5508	1814.831810156343	5
0	5515	1815.469682524733	6
0	5517	1816.547471429068	5
0	5523	1816.736055480646	6
0	5524	1817.400140693962	5
0	5530	1820.429974847877	6
0	5532	1823.423068000574	7
0	5534	1824.429153617814	8
0	5537	1826.436397485205	7
0	5544	1831.634227408528	6
0	5550	1834.611524447252	5
0	5556	1837.263409146642	4
0	5565	1840.311728913861	5
0	5568	1843.09542374406	4
0	5575	1843.652802482486	3
0	5582	1843.847623652196	2
0	5587	1845.174916456614	1
0	5592	1848.306254369051	0
0	5601	1854.276831683537	1
0	5603	1857.894969884175	2
0	5605	1860.740399901027	3
0	5607	1863.221162398015	4
0	5608	1863.652883830588	3
0	5617	1865.61489251074	2
0	5622	1865.738905749746	1
0	5629	1867.620252642794	0
0	5635	1868.238274730451	1
0	5636	1869.132123321863	0
0	5648	1870.017922788285	1
0	5651	1870.97467543875	0
0	5659	1874.026279120221	1
0	5660	1875.665605293548	0
0	5680	1878.89585571905	1
0	5681	1880.895517134353	0
0	5700	1888.364793668653	1
0	5704	1889.653027561236	0
0	5710	1890.104447600568	1
0	5717	1892.025054143067	0
0	5737	1896.314982959809	1
0	5738	1900.34605451961	0
0	5745	1901.203367967894	1
0	5748	1904.031949774688	0
0	5771	1908.21587912958	1
0	5772	1908.455924670472	0
0	5785	1912.318680947679	1
0	5786	1913.150244350837	0
0	5814	1925.619643197011	1
0	5818	1926.288489779718	2
0	5819	1926.40148336185	1
0	5826	1927.957508053583	2
0	5827	1929.780111140628	1
0	5835	1931.416779869394	0
0	5841	1933.84268464886	1
0	5845	1935.833439647026	2
0	5848	1938.896562982773	1
0	5853	1939.571247741386	0
0	5868	1941.570840544912	1
0	5872	1947.062898911386	0
0	5884	1947.938978901979	1
0	5887	1950.836254704277	0
0	5913	1959.668376694826	1
0	5918	1965.996965393307	0
0	5929	1968.377028561923	1
0	5930	1971.007626254779	0
0	5944	1973.143924795037	1
0	5946	1974.415944823974	2
0	5952	1975.35698242055	3
0	5953	1975.728796115039	2
0	5959	1975.905905339335	3
0	5964	1980.503475737694	4
0	5965	1981.220326853661	3
0	5973	1982.106848821471	2
0	5978	1982.362980168118	1
0	5984	1982.9730712697	0
0	6020	1996.773690707751	1
0	6023	1997.053789547451	0
0	6040	2008.635155125352	1
0	6046	2012.248587374027	0
0	6063	2015.594699622627	1
0	6065	2017.963481575411	0
0	6079	2024.151919124587	1
0	6084	2024.541068346266	0
0	6108	2031.778955111244	1
0	6111	2032.995720688456	2
0	6112	2033.077105477965	1
0	6125	2035.383023042192	2
0	6126	2036.483308753806	1
0	6131	2037.306975322693	0
0	6137	2038.074331460689	1
0	6138	2038.32109075685	0
0	6151	2040.991806602245	1
0	6155	2042.601061359208	2
0	6156	2043.057130588342	1
0	6166	2044.527402698436	2
0	6167	2044.775305572511	1
0	6172	2045.411212152801	0
0	6182	2048.962869659376	1
0	6183	2049.01072665229	0
0	6187	2050.296168070083	1
0	6192	2051.67189902295	0
0	6205	2056.746763840354	1
0	6219	2064.534816002809	2
0	6222	2065.073874814487	3
0	6224	2069.088474397199	4
0	6227	2070.511823461752	3
0	6232	2071.146235194929	2
0	6239	2074.186556197515	1
0	6245	2075.696991291546	0
0	6261	2080.922507146594	1
0	6262	2081.249163863292	0
0	6268	2081.817726000192	1
0	6269	2081.963851487365	0
0	6276	2086.730618760589	1
0	6278	2087.829333991589	2
0	6279	2088.338611542123	1
0	6286	2095.827134085975	0
0	6292	2097.357780508697	1
0	6295	2097.723929904438	2
0	6297	2099.765599338399	3
0	6301	2100.674173611015	4
0	6302	2100.680674297314	3
0	6308	2102.265633254387	2
0	6316	2102.760634832876	3
0	6319	2103.842622853546	2
0	6326	2105.12877727807	1
0	6331	2105.626295933744	0
0	6342	2106.635902441298	1
0	6344	2107.018485335072	2
0	6346	2107.905549207339	1
0	6351	2108.391012675652	0
0	6358	2108.566131914846	1
0	6364	2110.910511963394	2
0	6367	2114.368799190571	3
0	6368	2116.30106596669	2
0	6373	2117.393542447689	1
0	6380	2118.307520134103	0
0	6413	2128.366406299464	1
0	6415	2129.290111236172	0
0	6429	2131.368823363215	1
0	6430	2132.294929578185	0
0	6441	2135.437063177513	1
0	6443	2136.273471855062	0
0	6488	2153.644386283702	1
0	6490	2154.279483371589	2
0	6491	2154.447325730033	1
0	6500	2156.963180368211	0
0	6521	2159.558063359835	1
0	6526	2164.601478453312	2
0	6527	2164.679669348979	1
0	6534	2165.909879850082	2
0	6537	2168.723691523645	3
0	6544	2170.487510835956	2
0	6556	2174.200086829534	3
0	6557	2174.273850181128	2
0	6562	2176.41920798996	1
0	6568	2176.646814623707	0
0	6601	2186.761347297825	1
0	6606	2190.710677564105	0
0	6615	2193.387813140642	1
0	6616	2193.834935055561	0
0	6629	2194.634274901103	1
0	6631	2195.818405483935	0
0	6639	2198.66707631269	1
0	6640	2201.17344483233	0
0	6657	2204.266703862212	1
0	6668	2208.567606596946	0
0	6675	2209.181005818284	1
0	6676	2210.180240336424	0
0	6682	2210.796668812821	1
0	6685	2211.587715371869	0
0	6698	2217.3573349463	1
0	6699	2217.570935729868	0
0	6712	2220.281963195058	1
0	6720	2224.208814073031	2
0	6722	2224.218700246712	3
0	6723	2225.428204287233	2
0	6728	2225.869218076827	1
0	6739	2230.298831280502	0
0	6757	2232.043681434195	1
0	6759	2233.919254446036	0
0	6770	2235.16789094221	1
0	6772	2235.801503430983	0
0	6779	2239.894056852181	1
0	6782	2241.182941274154	2
0	6784	2244.031515861453	3
0	6786	2246.24097998336	4
0	6787	2249.444811759998	3
0	6792	2250.01137004537	2
0	6798	2251.35062426928	1
0	6803	2253.154886434086	0
0	6810	2254.921005779833	1
0	6811	2255.592799112253	0
0	6856	2269.998682070681	1
0	6861	2272.03171904444	2
0	6862	2272.79839873883	1
0	6868	2274.634403864975	0
0	6874	2274.948599449755	1
0	6880	2284.011130552464	0
0	6889	2284.410269783442	1
0	6891	2288.389028914645	0
0	6903	2289.142125896552	1
0	6905	2293.989013581834	2
0	6906	2296.110407211885	1
0	6916	2302.250974109199	0
0	6939	2305.751276565671	1
0	6940	2306.122349675871	0
0	6949	2307.061518694175	1
0	6952	2307.56594664069	0
0	6961	2310.809977761128	1
0	6962	2311.44275938156	0
0	6975	2312.517226734977	1
0	6976	2314.785217761271	0
0	6996	2320.035431222435	1
0	6999	2320.139337891051	0
0	7025	2329.325966990425	1
0	7027	2330.130024887638	2
0	7029	2333.912631314123	3
0	7030	2333.918374117059	2
0	7035	2333.98021325763	1
0	7040	2334.205367151606	0
0	7046	2334.739833081414	1
0	7050	2336.973007101738	2
0	7056	2340.354865819661	1
0	7062	2341.349516829477	2
0	7065	2343.824104959497	3
0	7066	2343.906346462447	2
0	7071	2343.967079118618	1
0	7077	2344.658476894948	0
0	7083	2347.231883768816	1
0	7086	2348.48343397854	2
0	7088	2348.795421306012	3
0	7092	2350.637786134674	2
0	7098	2350.692071570491	3
0	7101	2352.242192164052	2
0	7106	2352.759427415743	1
0	7111	2353.152698392753	0
0	7141	2361.831478980932	1
0	7142	2361.991222482332	0
0	7156	2363.949402553721	1
0	7157	2364.112320870333	0
0	7166	2366.411298868202	1
0	7169	2366.876405289718	0
0	7189	2374.211655728366	1
0	7191	2374.385915758946	2
0	7193	2374.532986335529	3
0	7195	2374.95194142714	4
0	7198	2376.998486329518	5
0	7200	2377.01095065198	6
0	7201	2381.066424936916	5
0	7207	2382.492684557165	4
0	7212	2382.539827059969	3
0	7221	2383.582620984666	4
0	7222	2384.232024698664	3
0	7228	2386.065736984505	4
0	7230	2387.345866164129	3
0	7236	2388.438728362281	2
0	7243	2390.385824852122	3
0	7250	2394.831845300479	2
0	7255	2395.498776924533	1
0	7260	2395.744739857412	0
0	7290	2405.678818255999	1
0	7292	2405.858766837185	2
0	7294	2406.534944407261	3
0	7296	2407.263790440359	4
0	7299	2408.4014341704	3
0	7304	2408.619252965797	2
0	7309	2408.717189934688	1
0	7315	2408.793622961829	2
0	7316	2409.312759047731	1
0	7321	2409.521164100901	0
0	7325	2409.694364281631	1
0	7328	2411.711878037443	0
0	7356	2420.185988110265	1
0	7358	2421.912919669171	2
0	7360	2425.076182192857	3
0	7363	2430.737718703975	2
0	7369	2433.170327868343	1
0	7375	2435.563009025315	0
0	7387	2437.863858435536	1
0	7390	2438.931835616344	0
0	7399	2440.604772262953	1
0	7400	2440.99152992486	0
0	7423	2446.163107233821	1
0	7424	2447.763487243395	0
0	7443	2454.544663626972	1
0	7447	2455.198221613337	2
0	7448	2455.825565829051	1
0	7457	2456.163241927544	2
0	7458	2456.795651609256	1
0	7463	2457.198757640878	0
0	7469	2457.536705561612	1
0	7470	2457.718501651595	0
0	7503	2471.646292709806	1
0	7504	2471.699236330348	0
0	7529	2480.764799125502	1
0	7530	2482.103911276419	0
0	7536	2482.477217045973	1
0	7537	2484.692286884083	0
0	7554	2488.718813799072	1
0	7556	2488.779347225659	2
0	7560	2490.1689034399	1
0	7567	2492.887766317423	0
0	7573	2493.137382915605	1
0	7576	2494.440559233483	0
0	7609	2505.1842468023	1
0	7610	2505.627431447699	0
0	7617	2507.168762917039	1
0	7619	2509.819524393527	0
0	7640	2511.718491395356	1
0	7643	2512.354561619953	0
0	7671	2519.230713862851	1
0	7672	2519.79905544499	0
0	7679	2522.181461605365	1
0	7681	2524.269170582852	0
0	7689	2524.9324272616	1
0	7692	2525.05968569763	0
0	7698	2525.578549701697	1
0	7701	2527.713079805952	2
0	7704	2528.091351096374	1
0	7710	2528.503714150381	2
0	7713	2530.165393743443	1
0	7720	2534.817205247241	2
0	7721	2535.637086651846	1
0	7729	2539.02314680175	2
0	7737	2542.328896279776	3
0	7740	2545.658161480056	2
0	7749	2546.579592037777	3
0	7750	2548.167675543706	2
0	7757	2550.449356570904	3
0	7761	2551.481428656072	2
0	7768	2551.689623846921	1
0	7774	2552.527131008584	0
0	7781	2554.217894473563	1
0	7783	2555.039303289514	2
0	7785	2556.755155588638	1
0	7791	2557.469684108741	0
0	7814	2562.075773438375	1
0	7815	2562.900211934271	0
0	7821	2564.684561543914	1
0	7822	2567.750708982859	0
0	7848	2574.813175819832	1
0	7854	2577.660300651577	2
0	7855	2580.338327371744	1
0	7864	2583.80281911424	2
0	7866	2584.090217633559	3
0	7869	2585.710804430146	2
0	7875	2589.301340644981	1
0	7881	2591.043501116419	0
0	7897	2595.557767998434	1
0	7898	2595.963186012749	0
0	7914	2601.204528073098	1
0	7916	2604.986548472547	2
0	7920	2606.145062749976	3
0	7922	2606.231187851384	4
0	7923	2606.542707265285	3
0	7933	2608.759967894594	4
0	7934	2609.17942258839	3
0	7942	2609.56192036746	4
0	7943	2610.256271049271	3
0	7953	2616.671412155175	2
0	7958	2617.191445491145	1
0	7965	2617.863329499083	2
0	7967	2621.003127155916	1
0	7972	2623.061951812009	0
0	7994	2632.68347942338	1
0	7997	2634.129348052718	0
0	8004	2638.186998255462	1
0	8007	2638.954773365263	0
0	8013	2639.34835647913	1
0	8015	2639.838249506355	2
0	8016	2640.524518287618	1
0	8024	2641.351753490827	2
0	8025	2641.458857457759	1
0	8031	2642.310745732295	2
0	8032	2642.986618313115	1
0	8037	2643.887760246241	0
0	8041	2644.254891657241	1
0	8043	2644.398900838702	2
0	8049	2647.106760721742	3
0	8050	2647.23184184799	2
0	8063	2655.935409583208	1
0	8069	2656.629564090804	0
0	8089	2662.963355050188	1
0	8094	2666.986863762351	0
0	8125	2678.440645211664	1
0	8127	2679.338672800229	2
0	8128	2684.54950169873	1
0	8134	2684.684897187478	0
0	8146	2688.686497047406	1
0	8150	2692.645590975716	2
0	8154	2693.536393403708	3
0	8155	2694.326822561206	2
0	8162	2695.68158179059	3
0	8163	2696.698094207459	2
0	8169	2698.626537318467	1
0	8175	2699.509084974536	0
0	8191	2701.466284755653	1
0	8194	2701.925993772117	0
0	8203	2703.827665170493	1
0	8207	2706.322873203102	0
0	8216	2708.379854819472	1
0	8217	2711.048664762785	0
0	8227	2714.872634361291	1
0	8229	2715.717182020195	2
0	8231	2716.328591253837	3
0	8234	2721.664078983777	2
0	8244	2724.343993709154	1
0	8250	2724.893775092679	2
0	8251	2727.32333082014	1
0	8256	2728.233132966456	0
0	8285	2740.582070925378	1
0	8290	2742.527150459635	0
0	8312	2749.327795669708	1
0	8314	2750.048957029597	2
0	8315	2756.295789509792	1
0	8323	2761.387714162325	0
0	8331	2765.778826719829	1
0	8332	2767.253651455312	0
0	8338	2767.510984869008	1
0	8341	2772.270964277896	0
0	8352	2773.784750508993	1
0	8354	2774.771144782741	2
0	8357	2775.654290474842	1
0	8362	2776.137789818102	0
0	8368	2776.198826599302	1
0	8370	2777.51040584907	0
0	8382	2779.051197517635	1
0	8386	2779.929773172005	2
0	8388	2781.134690973981	1
0	8393	2782.308955384663	0
0	8404	2783.15696210441	1
0	8406	2783.186429957075	2
0	8407	2783.762715577549	1
0	8415	2785.716885665612	0
0	8424	2786.801310448822	1
0	8433	2790.287414332794	2
0	8434	2793.637718552766	1
0	8440	2795.679295550813	2
0	8442	2795.945768481534	3
0	8444	2796.96216075484	4
0	8449	2798.922144799763	5
0	8451	2799.695852790844	4
0	8457	2802.812344542234	3
0	8463	2803.731735605607	2
0	8468	2804.611953565399	1
0	8474	2805.699436366829	0
0	8520	2821.233141209121	1
0	8525	2824.431304304541	0
0	8545	2828.659754051941	1
0	8546	2828.814059212859	0
0	8558	2830.190280518167	1
0	8563	2834.137549145546	0
0	8569	2835.52888424349	1
0	8571	2835.670228882072	2
0	8572	2835.870462775463	1
0	8581	2838.14813660171	0
0	8594	2839.98713622394	1
0	8595	2840.910244594111	0
0	8629	2852.138568088142	1
0	8632	2854.286249130303	0
0	8665	2869.083547153872	1
0	8667	2870.855451175148	2
0	8668	2875.05210546533	1
0	8673	2875.336160360816	0
0	8681	2876.548181101298	1
0	8683	2876.635877038522	2
0	8684	2877.102382076119	1
0	8690	2878.220148169374	0
0	8699	2881.818100174199	1
0	8701	2882.211994411663	2
0	8705	2885.210244902607	1
0	8711	2885.69984260199	0
0	8717	2886.002318638426	1
0	8719	2889.449792025845	0
0	8728	2890.754087403902	1
0	8730	2892.212401265156	2
0	8734	2895.486779552118	1
0	8740	2896.264757016528	0
0	8756	2899.482893425775	1
0	8758	2902.162196870306	0
0	8765	2902.818341256216	1
0	8766	2906.977844560271	0
0	8806	2920.793529006759	1
0	8808	2921.269341072398	2
0	8812	2921.483103434322	3
0	8818	2925.126002403388	4
0	8820	2925.208859436459	5
0	8821	2926.510598739767	4
0	8826	2927.189952512456	3
0	8837	2935.4154137873	2
0	8845	2943.304118072718	1
0	8850	2943.728459523345	0
0	8871	2946.892800079727	1
0	8874	2948.072333188907	0
0	8891	2951.999916462795	1
0	8892	2954.987521677533	0
0	8900	2957.008199435842	1
0	8901	2958.092717489242	0
0	8923	2962.082601076757	1
0	8926	2963.370388944245	0
0	8934	2965.047368537312	1
0	8938	2966.491353563768	0
0	8944	2967.102344365464	1
0	8947	2967.789008689536	0
0	8964	2981.229868054984	1
0	8966	2982.411386684873	2
0	8967	2983.843674706933	1
0	8974	2985.129840458685	0
0	8985	2988.310153827058	1
0	8986	2989.328231966405	0
0	8998	2990.574544793167	1
0	9000	2990.834081424824	2
0	9005	2995.416959490185	1
0	9011	2997.002780834756	0
0	9023	2999.615425686219	1
0	9025	2999.876293230478	0
0	9039	3002.155572162149	1
0	9041	3003.353088810889	2
0	9042	3006.599488368365	1
0	9050	3009.159704886755	2
0	9051	3009.3845466718	1
0	9059	3010.435068715303	2
0	9061	3011.624461947933	3
0	9062	3012.122073799827	2
0	9068	3012.253484021614	3
0	9070	3012.299639092682	4
0	9071	3013.418529419434	3
0	9077	3015.295464111804	2
0	9083	3016.679590055568	1
0	9089	3019.828739331031	2
0	9094	3025.245472390255	1
0	9102	3026.815787560913	0
0	9113	3027.239777348662	1
0	9114	3027.879777964853	0
0	9142	3033.989259660601	1
0	9143	3037.300168920067	0
0	9149	3037.403225355661	1
0	9151	3037.886854938971	0
0	9157	3038.455257588695	1
0	9160	3039.799335596562	0
0	9182	3043.309430319989	1
0	9184	3043.81487917297	2
0	9188	3046.11947956147	3
0	9189	3048.300692549094	2
0	9195	3048.307546463713	3
0	9196	3049.528317518503	2
0	9206	3051.014490054882	3
0	9208	3051.393357692001	4
0	9216	3054.481134660189	3
0	9223	3055.224525398902	4
0	9225	3056.913638955848	3
0	9231	3057.923735270375	4
0	9233	3058.816475015332	3
0	9245	3063.341456809856	4
0	9248	3064.329780630317	5
0	9251	3069.205032799948	4
0	9257	3069.681146361002	5
0	9259	3070.145292112072	6
0	9260	3071.223783836519	5
0	9268	3071.781468819665	6
0	9269	3071.918931279486	5
0	9274	3072.68521563154	4
0	9280	3077.502855059631	3
0	9285	3077.773926411908	2
0	9289	3077.806848496589	3
0	9296	3083.948546448624	2
0	9306	3085.008703409638	1
0	9313	3085.827573514211	2
0	9316	3090.035388501308	1
0	9323	3093.44996277522	2
0	9324	3093.721379920676	1
0	9329	3094.316033917109	0
0	9345	3095.335583781886	1
0	9349	3097.045627869003	0
0	9362	3101.22369228424	1
0	9367	3108.347932143062	0
0	9373	3108.713186565011	1
0	9374	3108.769965748796	0
0	9389	3109.566334067197	1
0	9397	3112.18812772974	0
0	9404	3112.430138138558	1
0	9406	3112.536498386645	2
0	9407	3114.188674914773	1
0	9413	3115.617265376242	0
0	9420	3116.73909988926	1
0	9421	3117.831730256701	0
0	9428	3118.181995356245	1
0	9431	3118.478116677172	2
0	9434	3121.9033684647	1
0	9441	3123.605173590395	2
0	9443	3123.775667499059	3
0	9445	3125.512084966521	4
0	9446	3125.822860547803	3
0	9452	3127.145030941515	4
0	9455	3127.396479946614	3
0	9460	3127.412194079314	2
0	9465	3128.463356845639	1
0	9476	3132.668831305623	0
0	9484	3137.328033022943	1
0	9486	3138.918995309622	2
0	9488	3139.679979290828	3
0	9491	3141.561721745299	2
0	9498	3142.540259100978	3
0	9499	3142.719156479814	2
0	9504	3143.068344911953	1
0	9510	3148.462647830386	0
0	9516	3148.543319825002	1
0	9520	3151.448614111916	2
0	9521	3152.268601385066	1
0	9527	3152.756062178756	2
0	9528	3153.882298964813	1
0	9533	3155.585430010957	0
0	9547	3156.750338392136	1
0	9549	3156.878562681052	0
0	9555	3157.34465324444	1
0	9558	3157.441249988	2
0	9559	3157.505686154237	1
0	9564	3158.174879698257	0
0	9577	3159.450829271508	1
0	9579	3159.745850188948	2
0	9580	3160.150931691955	1
0	9588	3161.565040239104	0
0	9601	3163.879347761117	1
0	9603	3164.440574721523	2
0	9605	3165.462268520244	1
0	9611	3168.646751666066	0
0	9623	3173.961602729788	1
0	9627	3175.648926312774	0
0	9644	3183.900434930068	1
0	9648	3186.563020774377	0
0	9655	3186.728854577369	1
0	9659	3190.026313099842	2
0	9661	3190.124637404912	3
0	9662	3191.376966305832	2
0	9667	3191.711468079326	1
0	9675	3193.072462039046	0
0	9682	3195.50801234942	1
0	9683	3197.947833654531	0
0	9693	3202.397812711606	1
0	9694	3202.886759713247	0
0	9708	3204.44824356551	1
0	9710	3205.602200660222	2
0	9711	3206.824804838786	1
0	9718	3208.908605621072	2
0	9721	3212.614581736707	1
0	9729	3213.217383720767	0
0	9736	3214.974312575849	1
0	9737	3215.311206741854	0
0	9744	3215.982871679449	1
0	9746	3216.989808976961	2
0	9749	3225.23981848021	1
0	9754	3225.898110706823	0
0	9779	3232.38484142021	1
0	9780	3232.448739477134	0
0	9792	3234.460598380417	1
0	9793	3235.95375202523	0
0	9806	3238.613114415043	1
0	9808	3239.227713742758	0
0	9814	3240.121073335894	1
0	9816	3241.234438118452	0
0	9865	3255.71742421463	1
0	9869	3259.171956509407	0
0	9875	3259.597663276326	1
0	9878	3260.487419680792	2
0	9879	3260.874448219011	1
0	9884	3261.184284334196	0
0	9914	3271.521659447663	1
0	9917	3272.083706202194	0
0	9928	3274.558924896503	1
0	9931	3278.691325527062	0
0	9937	3278.846994090773	1
0	9940	3281.989003596342	0
0	9947	3284.600166496907	1
0	9949	3285.145933469066	2
0	9950	3285.725247259346	1
0	9956	3285.728798421195	2
0	9959	3288.086207900331	3
0	9962	3289.590088954299	2
0	9968	3289.722053361604	3
0	9972	3290.545752187405	4
0	9974	3292.426995626339	3
0	9980	3293.338415438135	2
0	9985	3293.770339693205	1
0	9992	3294.4879054631	0
0	10012	3297.851410829457	1
0	10014	3299.070381244649	2
0	10016	3299.569812474977	3
0	10019	3301.234982948021	4
0	10022	3301.975638243006	3
0	10027	3302.434899007515	2
0	10035	3305.320256861343	3
0	10036	3306.325517960049	2
0	10043	3308.909027766908	3
0	10046	3309.39142520579	2
0	10051	3309.629213838766	1
0	10065	3316.230561044963	2
0	10067	3321.756710378296	3
0	10068	3324.319382599006	2
0	10074	3327.031269883678	3
0	10078	3327.784358118324	4
0	10081	3329.181652003643	5
0	10083	3329.575353477876	6
0	10084	3330.411260200271	5
0	10089	3331.515156151838	4
0	10097	3333.324990714663	3
0	10104	3334.299119699824	4
0	10109	3336.205606288261	5
0	10111	3337.151234867518	6
0	10115	3339.344836502415	7
0	10116	3344.091724955522	6
0	10122	3347.246071780902	5
0	10129	3349.138503832439	6
0	10130	3349.53766753428	5
0	10137	3351.508011892641	4
0	10142	3352.198976202521	3
0	10150	3352.623769543688	4
0	10152	3353.538220115629	5
0	10155	3354.059095970654	6
0	10158	3355.270833467309	5
0	10164	3356.699241949343	4
0	10170	3356.78018898063	5
0	10172	3358.646644695858	4
0	10178	3361.193899241238	3
0	10183	3362.033870068444	2
0	10189	3363.433393822777	1
0	10195	3363.589850436053	2
0	10200	3367.725045714238	1
0	10208	3369.600498068633	0
0	10231	3374.159932589975	1
0	10232	3374.707153889391	0
0	10244	3375.621540551762	1
0	10250	3380.995519103853	0
0	10264	3382.686082515725	1
0	10266	3383.275062079087	2
0	10267	3384.934220224924	1
0	10276	3386.916382754523	2
0	10277	3387.048207347233	1
0	10283	3387.56027436552	2
0	10284	3387.830409504727	1
0	10289	3390.207898812259	0
0	10295	3390.287749878102	1
0	10299	3393.399762548166	2
0	10301	3393.74039217531	1
0	10306	3395.319802492634	0
0	10325	3399.589882765382	1
0	10327	3400.04873877324	2
0	10329	3400.459803184848	3
0	10330	3402.719703048824	2
0	10336	3402.970844074152	3
0	10337	3403.35230732813	2
0	10347	3406.286795730141	3
0	10348	3407.677086295481	2
0	10354	3409.112304945058	1
0	10360	3410.538324499625	2
0	10362	3411.689756041997	1
0	10368	3412.096415542213	0
0	10375	3415.29452491274	1
0	10376	3417.434846895501	0
0	10385	3419.993770912645	1
0	10386	3420.42514798672	0
0	10410	3425.968909789771	1
0	10411	3427.10977057208	0
0	10421	3430.142887806249	1
0	10424	3430.350666635832	0
0	10432	3434.572533260191	1
0	10436	3437.035365110764	2
0	10437	3437.045586659377	1
0	10443	3437.622081958336	2
0	10444	3439.000438806935	1
0	10449	3439.537556478129	0
0	10479	3447.334616212564	1
0	10483	3452.016748463678	0
0	10494	3455.792432783841	1
0	10495	3457.938046695324	0
0	10501	3458.111161753364	1
0	10504	3459.529827276447	2
0	10506	3460.103990054275	3
0	10507	3460.585039560038	2
0	10514	3462.711658559092	3
0	10519	3463.803272863926	2
0	10526	3465.360785355497	3
0	10527	3465.857293588581	2
0	10532	3465.933074446332	1
0	10537	3465.987835419142	0
0	10551	3471.605919992233	1
0	10558	3474.09920794337	0
0	10578	3479.153313954333	1
0	10580	3479.309734025258	2
0	10582	3480.358199253964	3
0	10583	3481.016813114642	2
0	10591	3482.566723361012	1
0	10596	3484.156174168274	0
0	10602	3484.30562053793	1
0	10603	3485.690923644238	0
0	10637	3500.203378656567	1
0	10644	3502.063457268175	0
0	10651	3503.021638854937	1
0	10652	3505.14808692873	0
0	10658	3505.524502900769	1
0	10661	3506.021361629039	0
0	10670	3508.110695675945	1
0	10673	3508.780886967361	0
0	10719	3523.283993002024	1
0	10723	3523.647231182803	2
0	10725	3524.055389601242	3
0	10726	3529.016709842726	2
0	10731	3529.396638161882	1
0	10736	3529.976818677304	0
0	10742	3532.359308207003	1
0	10745	3534.805396009177	0
0	10761	3539.159787516661	1
0	10763	3539.161381358751	2
0	10768	3543.545794863506	3
0	10769	3543.655651527397	2
0	10774	3543.890586302899	1
0	10779	3546.555843079825	0
0	10825	3563.610573784219	1
0	10828	3563.930918621593	0
0	10839	3564.069095413178	1
0	10840	3564.706379478893	0
0	10854	3568.534858241111	1
0	10859	3570.426681843086	2
0	10860	3570.524364764667	1
0	10867	3573.212389675344	2
0	10868	3573.735104158611	1
0	10873	3573.832675717748	0
0	10886	3576.138995162259	1
0	10887	3578.944680004241	0
0	10909	3586.80072908863	1
0	10915	3589.225378530354	2
0	10916	3591.477025771652	1
0	10921	3591.791923727319	0
0	10930	3592.407179541038	1
0	10932	3593.592938530033	2
0	10934	3595.169665073629	3
0	10936	3596.489695182888	4
0	10939	3597.084878031146	3
0	10945	3597.547944002018	4
0	10947	3599.061773396391	3
0	10952	3599.195383930132	2
0	10958	3600.731942499706	3
0	10959	3600.835418218803	2
0	10964	3602.512264077093	1
0	10971	3603.655750805272	2
0	10976	3604.883510271654	1
0	10984	3605.837432978193	2
0	10985	3606.444141541566	1
0	10991	3606.988307457272	2
0	10992	3607.490521150359	1
0	11002	3613.883505272489	0
0	11028	3623.174490333587	1
0	11029	3624.042511717976	0
0	11035	3624.384807978355	1
0	11041	3630.009319943119	2
0	11043	3631.016860358563	3
0	11044	3631.212578616331	2
0	11049	3631.786660679419	1
0	11056	3633.779166245725	2
0	11057	3634.121084604596	1
0	11062	3634.927362789866	0
0	11081	3638.130375799073	1
0	11083	3638.452950113355	2
0	11084	3639.895574022216	1
0	11089	3640.682553954516	0
0	11098	3642.234305745351	1
0	11100	3642.878227944173	2
0	11103	3645.167738344652	1
0	11110	3646.670257394827	0
0	11119	3647.097455940272	1
0	11128	3648.825609995309	2
0	11129	3649.480196628843	1
0	11135	3653.012946197588	0
0	11162	3665.556828465556	1
0	11163	3665.808085805595	0
0	11178	3669.176804259228	1
0	11180	3670.27583181245	2
0	11186	3671.029140298502	3
0	11188	3671.326627278321	4
0	11189	3672.787812786921	3
0	11194	3673.347913905563	2
0	11201	3675.750371285987	1
0	11206	3676.660974152184	0
0	11217	3677.698180686177	1
0	11221	3680.109573152983	0
0	11230	3680.833753892118	1
0	11233	3681.181973570381	0
0	11242	3683.407135626275	1
0	11245	3684.34289858753	0
0	11278	3696.600120362965	1
0	11284	3698.940276131266	2
0	11286	3700.717578162695	3
0	11287	3702.136603116558	2
0	11298	3706.225878976195	3
0	11302	3709.225430956379	4
0	11303	3709.668456556543	3
0	11310	3711.621277803389	4
0	11311	3712.525989656149	3
0	11317	3713.57755676072	2
0	11326	3714.541000995755	3
0	11327	3715.337570400255	2
0	11333	3718.674475201594	1
0	11340	3721.704205881629	0
0	11347	3723.563191835316	1
0	11348	3723.705700068174	0
0	11396	3732.903541851098	1
0	11398	3733.252990950928	2
0	11400	3734.142345149596	3
0	11401	3734.212401495335	2
0	11410	3735.717410700581	1
0	11415	3735.817347410426	0
0	11424	3739.604263653484	1
0	11430	3740.307407635832	0
0	11449	3745.863373446944	1
0	11451	3746.247950796778	2
0	11452	3748.316978673295	1
0	11458	3748.706155671531	2
0	11460	3751.034925018327	1
0	11466	3751.667466903852	0
0	11474	3752.119977465521	1
0	11477	3755.515615514575	0
0	11499	3758.498812287092	1
0	11504	3761.599384621838	2
0	11508	3765.775166464293	1
0	11513	3766.631888376649	0
0	11525	3769.162309981421	1
0	11527	3769.657835139642	0
0	11544	3777.158940214606	1
0	11545	3778.492982179017	0
0	11552	3778.957545332533	1
0	11553	3780.088709355305	0
0	11559	3780.360594124939	1
0	11564	3783.446892920206	0
0	11588	3789.093007568211	1
0	11590	3789.521031417243	2
0	11591	3794.317728561913	1
0	11598	3795.899293710544	0
0	11626	3803.105536806059	1
0	11628	3803.717347044726	2
0	11633	3806.068475327286	1
0	11640	3809.103002418767	0
0	11647	3810.993753143975	1
0	11651	3814.363427903488	2
0	11653	3817.882845359459	3
0	11657	3818.623763445064	4
0	11658	3818.744798677061	3
0	11663	3818.888949735175	2
0	11668	3819.241613226448	1
0	11677	3820.680888374861	0
0	11684	3825.130584191195	1
0	11690	3827.855893599258	2
0	11692	3827.944845401973	3
0	11693	3829.215721553261	2
0	11698	3829.240031806925	1
0	11708	3833.082791755853	2
0	11710	3834.937780151338	3
0	11711	3836.531268370904	2
0	11720	3837.178668526221	3
0	11726	3839.330579190524	4
0	11727	3840.853675882133	3
0	11733	3841.190939398724	4
0	11736	3842.043510479456	3
0	11742	3842.126211001933	4
0	11745	3843.407460375006	3
0	11751	3843.679381811706	4
0	11752	3845.618965130954	3
0	11757	3847.274498617519	2
0	11765	3852.411977730487	1
0	11770	3852.938210707366	0
0	11774	3853.369739866634	1
0	11781	3855.01771753372	0
0	11793	3858.188203984528	1
0	11794	3859.268771848238	0
0	11801	3859.765762956003	1
0	11803	3860.004783989365	0
0	11829	3865.055542547996	1
0	11831	3867.614568477723	0
0	11837	3867.704291421183	1
0	11839	3868.656159397278	2
0	11841	3869.604683290667	1
0	11849	3871.384591115384	0
0	11855	3871.471413060753	1
0	11858	3871.718101877318	2
0	11861	3872.129951920042	3
0	11866	3874.303330820505	4
0	11871	3875.619822394607	3
0	11878	3877.122824628039	4
0	11879	3879.00777323595	3
0	11885	3879.473112652527	4
0	11887	3879.696424828002	3
0	11898	3883.05355257721	2
0	11903	3883.182884136829	1
0	11908	3883.435204482128	0
0	11915	3883.604238874213	1
0	11917	3883.695818111086	2
0	11920	3890.507641219603	1
0	11925	3890.673348631085	0
0	11931	3893.109103020027	1
0	11938	3896.103972542593	2
0	11942	3901.836472225321	1
0	11947	3901.901405457644	0
0	11953	3902.447753957607	1
0	11955	3905.565490209674	0
0	11982	3915.271787378472	1
0	11984	3915.319712204699	2
0	11988	3916.677769332464	3
0	11991	3918.831810795041	2
0	12003	3924.141457282159	3
0	12004	3924.517407672896	2
0	12010	3924.97009732646	1
0	12015	3925.517559391722	0
0	12033	3929.649609723408	1
0	12035	3930.170941200769	2
0	12036	3930.686747456381	1
0	12045	3933.829374833483	2
0	12046	3934.544851657165	1
0	12053	3936.747219156095	2
0	12054	3937.397245971466	1
0	12061	3940.515370049672	0
0	12074	3945.503952396767	1
0	12077	3946.543223073352	0
0	12089	3947.097105999665	1
0	12095	3951.339640462966	0
0	12109	3955.051998342943	1
0	12111	3955.948257349544	2
0	12115	3957.495476446788	3
0	12116	3958.011161600561	2
0	12121	3958.032741502609	1
0	12129	3960.96929622343	2
0	12134	3964.879998507884	3
0	12135	3966.602535778837	2
0	12141	3967.150475415051	3
0	12145	3967.71281540883	4
0	12147	3968.333287847377	5
0	12151	3969.778429491091	4
0	12156	3970.621852491544	3
0	12162	3971.365146311777	2
0	12167	3972.341461705671	1
0	12172	3972.593133713723	0
0	12186	3975.698041537837	1
0	12190	3977.284183397495	0
0	12201	3979.119666947243	1
0	12205	3980.188090117025	2
0	12206	3981.52402518029	1
0	12212	3981.532748974617	2
0	12214	3982.138463888439	1
0	12221	3983.391180311972	2
0	12222	3986.909730198046	1
0	12227	3986.984338738977	0
0	12234	3988.509165702738	1
0	12237	3990.841478506188	2
0	12238	3992.30558704152	1
0	12244	3993.498120231795	0
0	12251	3995.483069492518	1
0	12252	3995.622002462071	0
0	12281	4008.437122809586	1
0	12282	4008.984299104546	0
0	12292	4010.853639142457	1
0	12296	4014.305397276423	2
0	12297	4017.265833847675	1
0	12303	4019.138231807549	0
0	12333	4024.947703496516	1
0	12336	4027.260587682986	0
0	12342	4027.785477296647	1
0	12343	4028.308288493577	0
0	12365	4029.919489072419	1
0	12367	4032.334658512483	0
0	12402	4052.775629822023	1
0	12413	4059.265684306419	0
0	12419	4060.549017885956	1
0	12420	4060.659793293234	0
0	12451	4071.933599777973	1
0	12452	4072.26331826134	0
0	12468	4073.931174356507	1
0	12478	4076.542557691549	0
0	12484	4077.201427281647	1
0	12486	4077.487117848831	0
0	12497	4078.693858738459	1
0	12501	4083.308746017164	2
0	12502	4085.45275600863	1
0	12508	4086.014843677952	0
0	12516	4087.86355604323	1
0	12519	4088.650119361272	2
0	12521	4088.656337135523	3
0	12523	4089.345187817364	4
0	12525	4091.187642505867	5
0	12526	4091.299190088217	4
0	12532	4091.37790814695	5
0	12533	4091.410975849356	4
0	12542	4094.194434378295	3
0	12549	4095.626667914589	4
0	12553	4099.022586150242	3
0	12558	4099.544630335664	2
0	12563	4101.894658672815	1
0	12574	4106.321765693678	2
0	12575	4106.952381352857	1
0	12581	4107.914951717827	0
0	12609	4115.826182806256	1
0	12610	4116.592139683099	0
0	12621	4121.432760421314	1
0	12623	4124.286751770325	0
0	12635	4128.330156926243	1
0	12636	4128.523683310729	0
0	12646	4130.239572881946	1
0	12647	4131.559796494665	0
0	12654	4133.58618561687	1
0	12656	4133.592208040916	2
0	12657	4133.920421065231	1
0	12662	4134.723877316098	0
0	12674	4136.96931956901	1
0	12675	4137.090347542613	0
0	12685	4139.521706555669	1
0	12690	4141.570068729684	2
0	12692	4142.076664726375	3
0	12693	4143.316546174824	2
0	12700	4145.095056148537	1
0	12709	4145.900779823132	2
0	12711	4147.24580924155	3
0	12713	4148.453038492244	4
0	12714	4148.477588210524	3
0	12719	4149.157534341761	2
0	12724	4150.605735237946	1
0	12730	4150.94412093378	2
0	12733	4152.181945452133	1
0	12744	4156.291235446392	0
0	12774	4163.871767227694	1
0	12776	4164.449748632527	2
0	12778	4165.026382285647	3
0	12779	4165.425893005326	2
0	12784	4166.288621771445	1
0	12790	4166.703200829404	0
0	12810	4171.323037779338	1
0	12811	4171.760185793459	0
0	12833	4175.43445869777	1
0	12836	4181.744229900304	0
0	12844	4183.308993708622	1
0	12846	4184.055274383036	0
0	12853	4184.823561850902	1
0	12855	4186.549197046593	2
0	12858	4187.14564082636	1
0	12864	4188.729533005518	0
0	12870	4189.011910963641	1
0	12871	4190.824024145923	0
0	12880	4191.36300313827	1
0	12884	4191.595688729146	2
0	12886	4191.903001623638	3
0	12887	4192.004255975085	2
0	12892	4192.069460833233	1
0	12901	4193.472360275651	0
0	12910	4194.4588905785	1
0	12912	4194.56835394533	2
0	12916	4199.361879794397	1
0	12922	4200.519742714491	2
0	12923	4200.591493741986	1
0	12930	4201.78808155879	0
0	12943	4205.051987431143	1
0	12945	4208.323745745701	0
0	12951	4209.666944531494	1
0	12952	4210.617352466848	0
0	12963	4211.696705540954	1
0	12966	4213.861085948898	2
0	12968	4214.239576622091	1
0	12974	4214.722953870151	2
0	12978	4216.296309198228	1
0	12983	4216.622623856768	0
0	12990	4218.10127660652	1
0	12991	4218.152943429816	0
0	12997	4218.55841848836	1
0	12999	4218.66544546269	2
0	13000	4218.883616680804	1
0	13008	4219.699580199447	0
0	13014	4221.321626735978	1
0	13021	4224.111556693388	2
0	13023	4225.274703907982	3
0	13025	4227.057103456856	4
0	13031	4229.287163185833	5
0	13036	4233.524287351423	4
0	13041	4233.783074528117	3
0	13050	4237.545835927712	2
0	13056	4240.172483031998	1
0	13062	4240.413349480911	2
0	13064	4240.610319524308	3
0	13066	4240.641676775459	4
0	13067	4240.745143986529	3
0	13074	4243.017277713212	2
0	13086	4247.423042932834	1
0	13092	4247.601661841201	2
0	13093	4247.808421318111	1
0	13098	4247.934491915398	0
0	13123	4251.641742370475	1
0	13127	4253.839868188	2
0	13129	4254.298191905703	3
0	13132	4255.826006332165	4
0	13134	4258.634327862493	5
0	13135	4261.36136667358	4
0	13142	4263.194497393811	5
0	13143	4267.197676635526	4
0	13148	4267.302989688282	3
0	13156	4268.438108202677	4
0	13157	4268.525831745415	3
0	13163	4268.927475293431	2
0	13168	4269.27845549581	1
0	13174	4269.77331134724	0
0	13180	4270.548303857854	1
0	13182	4271.673765520348	0
0	13207	4280.326371152266	1
0	13208	4281.457702558352	0
0	13227	4289.172181854424	1
0	13231	4289.690039285576	2
0	13232	4289.947287955167	1
0	13239	4291.100043014905	2
0	13241	4291.770150292053	3
0	13242	4293.842371106372	2
0	13248	4295.641397952072	1
0	13254	4296.890635393416	2
0	13255	4297.417727155763	1
0	13263	4298.319866537648	0
0	13284	4304.959921565126	1
0	13285	4306.00172612772	0
0	13305	4313.305668946954	1
0	13306	4314.417523535831	0
0	13322	4319.791522953898	1
0	13324	4324.98854828176	0
0	13340	4331.864585447537	1
0	13342	4332.833512225851	2
0	13344	4337.977206324018	3
0	13345	4341.058356943112	2
0	13350	4342.76044053686	1
0	13356	4344.107657844187	0
0	13367	4346.243889357246	1
0	13368	4346.518135698923	0
0	13375	4349.271957058561	1
0	13380	4351.679578461313	0
0	13391	4353.407873672285	1
0	13395	4354.315153645009	2
0	13397	4355.437141709379	3
0	13400	4356.122538210803	2
0	13405	4358.004801064543	1
0	13413	4361.194374840135	2
0	13415	4362.014210467379	3
0	13416	4363.286144052617	2
0	13423	4364.00735338441	3
0	13426	4365.352948957906	4
0	13427	4368.017600293583	3
0	13434	4369.682051416291	2
0	13442	4371.387710514643	1
0	13449	4372.48576429733	0
0	13455	4372.952916978007	1
0	13460	4374.009416825348	2
0	13465	4379.674809714732	1
0	13471	4379.766752159007	2
0	13472	4380.707864052694	1
0	13477	4380.935395061816	0
0	13508	4383.906720018176	1
0	13513	4385.283222941044	2
0	13517	4385.880812180393	3
0	13520	4386.879348996375	4
0	13522	4389.282916063599	3
0	13529	4393.144735624577	2
0	13535	4393.612102106968	3
0	13537	4394.08860310445	2
0	13543	4394.200236579464	3
0	13545	4395.132969744283	4
0	13547	4397.91764530767	3
0	13555	4401.295719754595	2
0	13561	4401.868268519778	3
0	13563	4402.337518633035	4
0	13565	4403.249427381687	5
0	13567	4403.649256069087	6
0	13572	4405.3699627164	7
0	13575	4406.715576512161	6
0	13581	4406.73585909807	7
0	13584	4408.39848771186	8
0	13586	4408.56195678793	9
0	13588	4409.505473044177	10
0	13590	4411.117849024955	11
0	13591	4411.11797899932	10
0	13597	4414.132856683517	9
0	13602	4414.147413457843	8
0	13609	4414.430765621028	9
0	13610	4414.609318365504	8
0	13616	4417.331286234547	7
0	13622	4417.498964761064	8
0	13623	4419.491454375029	7
0	13628	4419.827571309014	6
0	13636	4422.04243617464	5
0	13641	4422.284485535607	4
0	13645	4422.697260101381	5
0	13648	4423.495427199467	4
0	13657	4425.13152277455	3
0	13663	4426.118901224658	2
0	13669	4430.745426157573	1
0	13674	4431.61354000713	0
0	13687	4434.910122811135	1
0	13689	4435.98526095526	2
0	13690	4437.459665683054	1
0	13698	4437.628873998169	2
0	13700	4441.650331830913	1
0	13708	4444.042776702532	0
0	13719	4445.49319385948	1
0	13721	4445.519250449997	2
0	13722	4445.572176256562	1
0	13728	4445.632821577164	2
0	13731	4448.613014145652	1
0	13739	4449.878611676633	0
0	13751	4453.493234129812	1
0	13752	4455.605468208374	0
0	13769	4457.012263792342	1
0	13771	4457.058751579549	2
0	13773	4459.403256813919	1
0	13778	4460.79116452236	0
0	13797	4464.414113983532	1
0	13799	4469.887022442989	0
0	13820	4480.68049429636	1
0	13822	4483.88469897027	2
0	13824	4484.093030205353	3
0	13828	4491.159101719728	2
0	13834	4492.872409587944	1
0	13840	4493.526535154308	2
0	13842	4494.571728970855	1
0	13848	4494.887006063239	2
0	13849	4497.261448490195	1
0	13855	4497.391980786397	2
0	13856	4499.140740815303	1
0	13862	4500.331259748852	0
0	13899	4508.516219319027	1
0	13900	4509.655809440028	0
0	13928	4523.241452339187	1
0	13931	4531.054275849423	0
0	13939	4532.664127305023	1
0	13942	4535.605565988267	2
0	13943	4536.814484087385	1
0	13948	4537.326018659693	0
0	13970	4541.77262156138	1
0	13972	4542.873968423961	0
0	13992	4545.295904241281	1
0	13996	4548.045511142761	0
0	14002	4551.788529839897	1
0	14004	4553.540874123727	0
0	14011	4553.736418197953	1
0	14014	4555.227733432127	0
0	14020	4555.479837871616	1
0	14023	4559.50059480335	2
0	14024	4560.299297385775	1
0	14030	4561.158088724736	2
0	14032	4564.002763383636	1
0	14038	4564.337510438787	2
0	14039	4564.432629872967	1
0	14046	4565.861396513653	2
0	14047	4565.963033607931	1
0	14053	4566.373752861797	2
0	14054	4566.609820668101	1
0	14060	4568.210075847897	2
0	14063	4571.040998406605	1
0	14068	4572.042511296859	0
0	14084	4578.753275784915	1
0	14085	4579.899342757539	0
0	14105	4584.414583612246	1
0	14109	4588.087385000323	2
0	14113	4593.592848873408	1
0	14120	4596.200734108618	2
0	14123	4597.872991857983	3
0	14127	4599.252705280503	2
0	14133	4600.681744949237	1
0	14141	4601.214334761049	0
0	14170	4605.614304890894	1
0	14171	4606.895501503682	0
0	14188	4614.867673127365	1
0	14190	4617.245296270711	2
0	14192	4617.733651901441	3
0	14197	4622.101841779225	2
0	14204	4622.77090613748	1
0	14209	4622.773156194845	0
0	14215	4623.450563404323	1
0	14216	4623.717477690995	0
0	14234	4628.824411009484	1
0	14237	4629.436225113784	2
0	14238	4630.447486172032	1
0	14243	4630.998147718677	0
0	14254	4633.756197125879	1
0	14261	4636.401848820007	0
0	14282	4643.432286056089	1
0	14286	4644.804921073444	2
0	14288	4647.109811027223	1
0	14295	4653.237054600149	0
0	14304	4653.889757303338	1
0	14310	4656.301969342174	2
0	14312	4657.200436089647	3
0	14313	4657.877736889405	2
0	14325	4661.793786220178	1
0	14331	4662.375477772939	2
0	14334	4663.336201775109	3
0	14336	4663.876237983624	4
0	14337	4664.856233487295	3
0	14343	4666.730342950643	2
0	14349	4668.28054637596	1
0	14357	4670.088673647414	0
0	14374	4670.808018911392	1
0	14376	4671.867975448781	0
0	14388	4673.061430948505	1
0	14390	4673.601215895594	2
0	14391	4675.123357870381	1
0	14401	4676.217525859349	2
0	14402	4676.383802516152	1
0	14407	4676.936181267958	0
0	14413	4677.354780577149	1
0	14415	4678.850796625347	0
0	14422	4680.740203604703	1
0	14423	4680.835789652893	0
0	14437	4685.640107663399	1
0	14441	4690.257532157424	2
0	14445	4691.51643611905	1
0	14450	4691.705669353324	0
0	14464	4697.896793739319	1
0	14470	4701.464810426012	2
0	14472	4703.377060518752	1
0	14478	4703.396180368498	2
0	14481	4704.872088106781	1
0	14486	4706.084202204407	0
0	14501	4714.459939274899	1
0	14503	4716.104152411418	2
0	14508	4720.655588466914	1
0	14513	4720.816059100363	0
0	14522	4725.329608441114	1
0	14523	4727.241511780064	0
0	14535	4728.588735596725	1
0	14536	4728.937896673976	0
0	14544	4731.22860980973	1
0	14545	4732.357250317477	0
0	14577	4738.98531130432	1
0	14579	4739.982910896703	2
0	14581	4741.086185637282	3
0	14583	4741.572066226197	4
0	14584	4743.021274655184	3
0	14591	4743.426179342698	4
0	14597	4745.326946438496	3
0	14602	4748.272378786993	2
0	14608	4748.475748233166	3
0	14610	4750.530543297546	2
0	14615	4750.598128309543	1
0	14620	4750.860187422358	0
0	14638	4754.664188015736	1
0	14643	4757.46747824883	2
0	14645	4758.786974211315	1
0	14651	4761.122936403116	0
0	14669	4768.268276738091	1
0	14672	4770.735291872854	0
0	14678	4770.895411530873	1
0	14679	4771.117052565606	0
0	14691	4776.826628023622	1
0	14693	4777.000081087569	2
0	14696	4777.538797738922	1
0	14701	4779.342541972269	0
0	14722	4783.615274427887	1
0	14723	4784.294161991372	0
0	14730	4789.603587958203	1
0	14732	4789.986649148973	2
0	14735	4793.569065123573	1
0	14742	4794.19956289014	2
0	14743	4795.181669244912	1
0	14750	4797.289325706062	2
0	14755	4798.676747477884	1
0	14761	4799.533563067496	0
0	14782	4803.219331438453	1
0	14783	4803.314561071034	0
0	14791	4804.629226559018	1
0	14792	4805.164045748951	0
0	14809	4807.748461342242	1
0	14810	4810.153677869108	0
0	14816	4810.851764457749	1
0	14817	4810.906548737824	0
0	14832	4813.907485350129	1
0	14836	4816.279872966139	2
0	14837	4817.214390669995	1
0	14846	4819.980850156325	2
0	14847	4820.535166876987	1
0	14853	4820.925937335521	0
0	14866	4823.623219502678	1
0	14868	4823.700977228918	2
0	14870	4824.584959754683	3
0	14873	4830.590631244865	2
0	14880	4836.10612426135	3
0	14883	4838.754576259853	2
0	14890	4839.919294597355	1
0	14900	4846.246997417419	0
0	14919	4852.317424529827	1
0	14920	4852.430469197419	0
0	14938	4856.2189940687	1
0	14939	4856.72100680117	0
0	14945	4858.95587288509	1
0	14946	4859.284952209764	0
0	14952	4859.533067133793	1
0	14953	4859.758830455115	0
0	14962	4859.932107478416	1
0	14966	4862.498996068845	2
0	14968	4866.282228998498	3
0	14970	4867.404473823131	4
0	14974	4867.928674345636	3
0	14983	4872.527351396137	4
0	14986	4875.772744114337	5
0	14990	4877.349780579872	4
0	14998	4877.996512332666	5
0	14999	4881.034068235542	4
0	15007	4881.791729079622	3
0	15014	4882.888963659124	4
0	15017	4883.830684425935	3
0	15023	4884.382036587363	4
0	15026	4890.579021285062	3
0	15033	4892.014210659476	4
0	15036	4893.048225907191	3
0	15042	4895.752422607147	4
0	15044	4896.91301392764	5
0	15048	4897.580964146187	4
0	15053	4899.832002979119	3
0	15058	4899.867340950328	2
0	15064	4900.408543681542	1
0	15076	4903.422300580101	0
0	15104	4913.035700538235	1
0	15106	4914.616005902716	2
0	15108	4914.782625042711	3
0	15110	4914.916972207743	4
0	15111	4917.352952582778	3
0	15117	4920.201553888928	2
0	15123	4920.57151323608	1
0	15129	4920.66379727828	2
0	15132	4921.448482652015	3
0	15134	4921.729737727972	4
0	15136	4921.960056512391	5
0	15137	4922.332849240065	4
0	15142	4922.45958442019	3
0	15147	4922.772299932705	2
0	15152	4922.999425633713	1
0	15157	4923.361038954316	0
0	15169	4925.934538209761	1
0	15172	4927.05798821238	2
0	15174	4927.853396674137	1
0	15179	4928.233680086988	0
0	15199	4932.818818332639	1
0	15200	4933.186066775897	0
0	15227	4944.439210947132	1
0	15229	4946.386350010456	2
0	15230	4947.125878656797	1
0	15236	4947.608062720777	2
0	15239	4948.500305587758	3
0	15240	4949.76475183717	2
0	15246	4951.001378027489	1
0	15252	4951.270361570021	2
0	15253	4951.403531165177	1
0	15259	4952.019760711901	2
0	15264	4960.826743466054	1
0	15270	4961.470749574755	0
0	15299	4976.255920798663	1
0	15304	4979.7695461568	0
0	15313	4982.408159907071	1
0	15315	4982.466177502789	2
0	15321	4987.672871160829	1
0	15329	4988.782783525401	2
0	15330	4988.842085291672	1
0	15336	4988.941565876299	2
0	15339	4990.072495552882	3
0	15340	4990.272686424626	2
0	15347	4991.201276776284	3
0	15348	4991.461799546246	2
0	15358	4992.837176686816	3
0	15359	4993.185156197994	2
0	15365	4994.866858218364	1
0	15371	4995.113984515077	2
0	15372	4995.418085646951	1
0	15379	4995.673815397973	2
0	15382	4999.654102586446	1
0	15387	4999.965029919619	0
0	15399	5003.20457905742	1
0	15403	5008.910850974597	0
0	15423	5016.309517774086	1
0	15427	5018.276099311738	2
0	15438	5027.963658542978	1
0	15443	5028.734996605871	0
0	15449	5029.267612434741	1
0	15451	5030.203000659423	2
0	15458	5032.707973872177	3
0	15460	5032.955144701131	4
0	15461	5034.050020634291	3
0	15468	5035.586264612473	2
0	15474	5036.596499052927	1
0	15480	5037.161131708131	2
0	15482	5037.986924507939	1
0	15491	5039.289288442106	2
0	15493	5041.758090250564	3
0	15494	5041.809937877363	2
0	15499	5042.130701448547	1
0	15510	5043.835063116186	2
0	15513	5048.49828866118	1
0	15520	5050.012433905763	2
0	15522	5051.123773322056	3
0	15525	5052.090659762131	2
0	15530	5052.264739861301	1
0	15536	5053.238276099862	0
0	15561	5055.920182448967	1
0	15565	5058.52312891904	2
0	15568	5061.040230911853	1
0	15573	5061.117466278034	0
0	15589	5063.955746755449	1
0	15593	5070.198529774802	2
0	15594	5074.273472210564	1
0	15599	5074.312106907544	0
0	15605	5074.69865709401	1
0	15608	5076.730093199374	0
0	15619	5077.643936921726	1
0	15623	5079.11506862685	0
0	15645	5080.466172806494	1
0	15648	5080.814007118147	0
0	15667	5085.446211411462	1
0	15668	5086.549049015432	0
0	15674	5086.606834581034	1
0	15676	5088.136084340737	2
0	15680	5089.923801544033	1
0	15687	5091.754895016892	2
0	15691	5093.46873547412	3
0	15693	5093.659997221643	4
0	15694	5093.821260867144	3
0	15699	5095.69094784011	2
0	15705	5096.656408031456	3
0	15708	5099.002263640251	2
0	15715	5099.74784475439	1
0	15721	5100.301275563758	0
0	15750	5103.913393232138	1
0	15755	5106.205123789921	2
0	15758	5110.190794514385	3
0	15761	5112.562359002704	2
0	15766	5112.98490407607	1
0	15777	5117.081468411629	2
0	15779	5117.15281641959	3
0	15781	5117.446738773691	2
0	15786	5119.317736034181	1
0	15793	5120.117541213515	0
0	15807	5125.979015483475	1
0	15811	5127.221353902682	2
0	15812	5128.000854909205	1
0	15817	5128.004306927077	0
0	15828	5130.402028554031	1
0	15829	5130.593158660407	0
0	15841	5137.253919179342	1
0	15851	5141.812130466974	2
0	15853	5141.934518763456	3
0	15854	5145.144888217553	2
0	15860	5145.145566885632	3
0	15862	5145.514769668413	4
0	15863	5145.700969144472	3
0	15869	5146.520341403758	2
0	15874	5146.864322737362	1
0	15880	5147.340642157374	0
0	15889	5149.732196887075	1
0	15892	5150.075734761412	2
0	15893	5150.2918274004	1
0	15902	5153.697410546985	0
0	15909	5155.647760807437	1
0	15910	5156.033247860446	0
0	15916	5156.133532941267	1
0	15919	5157.805192869649	0
0	15933	5160.528007399123	1
0	15936	5162.49607375087	0
0	15943	5164.327761933365	1
0	15944	5165.234856454185	0
0	15994	5178.395750561633	1
0	16000	5183.056547690493	2
0	16008	5187.5193677116	1
0	16014	5187.611864791997	0
0	16021	5189.197008219152	1
0	16025	5194.501964185328	2
0	16026	5195.491662949719	1
0	16032	5195.828050123077	2
0	16033	5196.154167805164	1
0	16038	5196.854875555187	0
0	16052	5198.185073277907	1
0	16053	5198.192451714508	0
0	16064	5199.015402951747	1
0	16068	5202.204563749388	0
0	16080	5206.231663548627	1
0	16087	5210.192995569758	2
0	16088	5210.599461770794	1
0	16095	5211.473255525799	2
0	16097	5215.647380260225	3
0	16098	5215.843987904609	2
0	16104	5218.126410856806	1
0	16109	5218.493960551675	0
0	16117	5219.814135098551	1
0	16119	5219.945229319826	2
0	16123	5222.355881618913	1
0	16129	5224.78748389449	0
0	16147	5233.78503736889	1
0	16149	5234.221520361257	2
0	16150	5234.518795255625	1
0	16160	5235.942267991183	0
0	16169	5237.808501831098	1
0	16173	5239.873336170093	0
0	16190	5247.119047698466	1
0	16192	5247.35725340531	2
0	16199	5250.148028092902	1
0	16207	5253.400762894272	2
0	16209	5254.547983527585	3
0	16210	5255.870123156425	2
0	16215	5256.327083245223	1
0	16222	5256.889980923237	0
0	16237	5260.772565664879	1
0	16238	5260.872278382092	0
0	16244	5261.351462603089	1
0	16254	5272.358554636564	2
0	16255	5272.653750360317	1
0	16260	5274.033081506849	0
0	16274	5275.134337112263	1
0	16275	5276.042528490682	0
0	16290	5278.691045445849	1
0	16292	5280.196575748445	2
0	16297	5282.599888567852	3
0	16298	5282.846076383964	2
0	16303	5283.30892587835	1
0	16309	5284.750204644058	0
0	16315	5284.779960417633	1
0	16317	5286.474033925068	0
0	16391	5305.268934249423	1
0	16395	5306.139232500268	2
0	16396	5309.139968403549	1
0	16401	5309.458627289056	0
0	16415	5317.406083463263	1
0	16417	5319.763575331304	0
0	16438	5324.022805015589	1
0	16439	5324.295610557347	0
0	16446	5326.124086921646	1
0	16449	5326.38367722732	2
0	16450	5326.530246243166	1
0	16456	5326.56702784216	2
0	16458	5327.805765470579	1
0	16464	5328.495145548092	2
0	16465	5329.493573328548	1
0	16475	5333.163814492247	0
0	16491	5337.017232349758	1
0	16492	5339.377459221401	0
0	16499	5340.900200771328	1
0	16501	5341.526404557018	2
0	16504	5343.82995471853	1
0	16510	5345.417556346484	0
0	16516	5345.585883293148	1
0	16521	5348.637954445731	2
0	16523	5348.797086235448	3
0	16524	5349.807141799191	2
0	16530	5352.080648676066	1
0	16538	5354.087626903625	0
0	16547	5358.136440361813	1
0	16551	5359.758136538393	2
0	16552	5363.334385278163	1
0	16558	5364.922103564942	0
0	16570	5367.381703424381	1
0	16572	5368.135708194345	2
0	16574	5368.988857077507	3
0	16575	5370.067774186384	2
0	16581	5372.856464178029	3
0	16582	5374.044440140439	2
0	16589	5374.584580304826	1
0	16596	5375.760969747741	2
0	16598	5377.19596889341	1
0	16607	5381.595127437847	0
0	16622	5388.429858291709	1
0	16627	5390.892222017413	0
0	16637	5393.656283795809	1
0	16639	5393.762375975419	2
0	16641	5394.547882178191	3
0	16645	5395.174924676522	4
0	16650	5397.383202013435	3
0	16659	5398.286056122321	4
0	16660	5398.98999818419	3
0	16666	5401.116687717188	2
0	16672	5402.764731484585	1
0	16677	5404.717189889255	0
0	16713	5418.594129430337	1
0	16715	5418.845666141709	2
0	16716	5422.363711548356	1
0	16722	5424.142683349663	2
0	16724	5424.386191317736	3
0	16726	5426.008651167518	2
0	16733	5427.41836111372	1
0	16739	5428.560255071136	0
0	16745	5430.540840349015	1
0	16750	5435.877591674216	0
0	16763	5438.0918585927	1
0	16764	5440.221914769089	0
0	16786	5441.666210441588	1
0	16788	5442.276686385705	0
0	16794	5442.865071854855	1
0	16795	5442.91817050301	0
0	16814	5445.988968140419	1
0	16817	5448.223233394438	0
0	16824	5450.372449103845	1
0	16825	5452.163697339018	0
0	16835	5454.701297906085	1
0	16841	5458.843873550543	2
0	16846	5460.545199372536	3
0	16847	5461.04145660191	2
0	16860	5466.49686109492	1
0	16865	5466.73788828946	0
0	16877	5468.098611011032	1
0	16878	5469.318886896158	0
0	16899	5475.359466988328	1
0	16903	5476.219047244397	2
0	16905	5477.281923660431	3
0	16906	5477.289102406722	2
0	16912	5477.661323506226	1
0	16918	5478.144210278013	2
0	16924	5480.66362184472	1
0	16929	5481.047152898295	0
0	16942	5482.587203197045	1
0	16946	5484.536896561626	0
0	16965	5490.437216211357	1
0	16966	5492.014377355411	0
0	16987	5498.689371711377	1
0	16988	5500.372994301709	0
0	17000	5503.155997795448	1
0	17001	5503.175823953847	0
0	17007	5503.280449176118	1
0	17009	5503.294690104693	2
0	17011	5505.42744944493	1
0	17020	5505.998952898854	2
0	17021	5512.689481713716	1
0	17027	5513.567921717721	2
0	17030	5514.74383713115	1
0	17040	5516.969884344138	0
0	17054	5524.553806815829	1
0	17055	5524.693895284218	0
0	17062	5525.896657354081	1
0	17064	5526.415859966108	2
0	17070	5530.529169097975	3
0	17071	5532.998514541015	2
0	17076	5534.009419758731	1
0	17082	5534.822948987816	0
0	17112	5547.041805247152	1
0	17114	5548.129876591575	2
0	17115	5548.75616641468	1
0	17121	5549.845452291732	2
0	17122	5550.048257843692	1
0	17130	5552.61615172662	2
0	17131	5553.993840940399	1
0	17136	5554.321994430052	0
0	17142	5554.880335408926	1
0	17145	5555.223748838941	2
0	17146	5555.276087471988	1
0	17151	5556.570392723573	0
0	17170	5562.175977646058	1
0	17173	5564.41254239493	0
0	17182	5564.743670527549	1
0	17184	5565.070249493123	2
0	17187	5566.727028475876	1
0	17193	5568.52926723991	0
0	17205	5574.816503723437	1
0	17207	5574.961864734487	2
0	17209	5576.203326302543	3
0	17210	5579.005964738697	2
0	17217	5581.145359574981	3
0	17220	5585.351419142318	4
0	17221	5585.35992864161	3
0	17229	5586.568887757731	4
0	17230	5587.444374630561	3
0	17238	5589.209053392422	4
0	17241	5594.203829123168	5
0	17243	5595.113749298903	6
0	17246	5598.484430164002	5
0	17253	5603.488038446411	6
0	17257	5604.379811903606	7
0	17263	5611.704979302813	8
0	17264	5611.731398543752	7
0	17271	5613.594751648121	8
0	17273	5613.753738311335	7
0	17279	5614.838999684145	8
0	17284	5618.125803412804	7
0	17293	5619.130110226241	6
0	17300	5621.233080687143	7
0	17301	5622.359440059624	6
0	17306	5628.287818035307	5
0	17312	5630.174478269075	4
0	17318	5630.524229788238	5
0	17319	5630.764668788669	4
0	17323	5631.120873777959	5
0	17327	5631.968056135757	6
0	17330	5632.910700837555	7
0	17333	5639.848883116359	6
0	17340	5641.391509706828	7
0	17345	5645.060385410516	8
0	17346	5645.432453761495	7
0	17353	5648.55182892793	8
0	17355	5649.060365562965	9
0	17359	5653.809002556483	10
0	17361	5653.88314261624	11
0	17363	5653.957973988947	12
0	17366	5654.950142117384	11
0	17372	5656.385699361508	10
0	17378	5656.73984044358	9
0	17383	5659.125940063302	8
0	17388	5661.650004897179	7
0	17402	5665.827525232553	8
0	17405	5666.576955057571	9
0	17406	5667.745431477094	8
0	17413	5670.613109701035	9
0	17414	5670.736590976332	8
0	17419	5671.078628400254	7
0	17424	5673.367059566959	6
0	17430	5674.188328989312	7
0	17436	5677.185872825319	8
0	17438	5678.300988765955	7
0	17443	5678.355636229293	6
0	17449	5679.033570823657	7
0	17450	5679.451389056433	6
0	17456	5680.505275009572	5
0	17461	5680.800595149846	4
0	17467	5681.735258906199	3
0	17472	5682.02047470856	2
0	17480	5684.462396078569	3
0	17482	5684.775248475052	4
0	17484	5684.957154188616	5
0	17485	5684.990376526169	4
0	17489	5685.453035712911	5
0	17492	5686.948947462334	4
0	17498	5687.962641192037	3
0	17504	5691.082148027368	2
0	17513	5693.787952767836	1
0	17521	5695.257563315302	2
0	17524	5695.508949853196	1
0	17532	5696.662901659387	0
0	17538	5697.747469605145	1
0	17540	5698.042125081263	2
0	17542	5698.470899255101	1
0	17549	5701.056583363943	0
0	17555	5701.358202475751	1
0	17556	5702.563233737776	0
0	17562	5704.650902808836	1
0	17563	5705.286604858691	0
0	17597	5712.226077231939	1
0	17600	5713.482918044937	0
0	17624	5723.562122111615	1
0	17629	5729.286304768808	0
0	17641	5735.412944954979	1
0	17643	5737.915712153742	2
0	17648	5738.434129006067	1
0	17655	5738.685881837545	0
0	17669	5742.615793716119	1
0	17671	5743.137949244391	2
0	17675	5745.120745256608	3
0	17677	5745.754452717304	2
0	17686	5748.913310504503	3
0	17689	5749.660989830232	2
0	17695	5750.580059871307	1
0	17700	5751.275788378946	0
0	17710	5751.706534190847	1
0	17719	5759.661370908316	2
0	17721	5760.575435287495	1
0	17728	5762.109513695457	2
0	17729	5762.973831755187	1
0	17736	5765.408922646432	2
0	17737	5765.755427023725	1
0	17745	5768.589276087201	0
0	17756	5769.843425977601	1
0	17759	5773.324962541346	0
0	17771	5777.057674400543	1
0	17775	5777.939955595452	2
0	17776	5780.02856380407	1
[...]
5	81181	26497.580384233646	5283.7278078859
5	81202	26510.051977887699	5293.0300833763
5	81360	26562.447342814471	5343.7397378412
5	81381	26570.34674317274	5351.3428309293
5	81413	26578.888497004082	5359.4969668111
5	81418	26579.116750117123	5354.5148023456
5	81429	26585.015954029553	5353.2803688184
5	81438	26588.361396466416	5354.6181663549
5	81451	26595.743657255321	5361.3252761564
5	81465	26597.65256285545	5349.917746329
5	81472	26599.270856215263	5347.6911178438
5	81477	26600.281442538799	5344.5420147522
5	81484	26603.142692185425	5343.4505982803
5	81497	26605.191338683636	5324.4250169455
5	81502	26607.323402457307	5321.0282845732
5	81515	26614.906878259548	5311.1913870966
5	81570	26634.697400890747	5326.0020949608
5	81577	26635.216423706391	5326.3156166616
5	81586	26640.809866332728	5323.8106091149
5	81596	26645.750592007296	5319.6682640219
5	81606	26649.516338691254	5307.2044117359
5	81638	26656.162908562234	5312.0294395706
5	81645	26659.131983656961	5309.2773408921
5	81651	26660.442246401257	5303.0793254177
5	81657	26661.604726652674	5303.4397433237
5	81662	26662.351516972208	5302.764792143
5	81669	26669.834454310312	5304.6011958063
5	81690	26676.99913821898	5306.1014647522
5	81741	26687.630933687281	5310.9318863477
5	81754	26696.535379418744	5309.7574153503
5	81759	26696.703817979438	5297.6793848087
5	81770	26702.357229553912	5294.9813922934
5	81989	26769.161626731108	5360.8266103513
5	81998	26769.699887877781	5353.7183572635
5	82003	26770.259363333988	5350.2171168633
5	82011	26773.240300570856	5350.9217050353
5	82021	26776.227839786667	5346.6793287721
5	82031	26776.817512301333	5327.5331584228
5	82049	26782.742695234377	5321.6443160487
5	82140	26814.199648539267	5349.6734692681
5	82147	26815.174215295097	5339.8160456295
5	82569	26961.558143220324	5479.9294831112
5	82578	26964.053055734082	5481.9930462391
5	82583	26964.529562037855	5477.1109661083
5	82588	26965.139850913112	5469.7436863982
5	82593	26967.811405961206	5471.6403275997
5	82601	26968.969048930662	5471.1095756371
5	82607	26970.782876559407	5467.7905270634
5	82616	26978.887864565084	5475.0313009974
5	82623	26982.325140816447	5476.9788105449
5	82637	26988.075446324396	5480.5503918662
5	82660	26995.825314589985	5481.49821561
5	82666	26999.425470297468	5483.5023942469
5	82671	27000.106469755479	5472.5814481158
5	82676	27003.714427416919	5469.8066696291
5	82683	27004.850066492532	5467.9103241838
5	82693	27013.109044997256	5470.6941581825
5	82701	27014.444272078336	5464.3258011015
5	82715	27018.406472945895	5462.0500256816
5	82728	27020.19332971714	5458.5695675088
5	82738	27022.166414935666	5457.9196800537
5	82751	27030.598297764649	5442.8159099378
5	82890	27068.471205434132	5477.9456595161
5	82899	27069.188427461349	5471.1872641837
5	82923	27077.718078618505	5478.3889753642
5	82930	27081.788561081994	5476.6998386015
5	82942	27085.301017366022	5469.7656164213
5	82954	27091.887629858419	5473.154933643
5	83059	27115.362612896386	5489.9355640958
5	83072	27118.249930202088	5491.997703548
5	83103	27126.222239588443	5497.3409668018
5	83144	27146.736066321513	5516.7030511807
5	83290	27194.435413002523	5560.8347348283
5	83300	27201.990369004715	5567.8415722677
5	83313	27206.959521647509	5569.4043437519
5	83319	27208.846369931525	5557.7351761969
5	83326	27212.18765709264	5550.6313152404
5	83334	27219.183150537597	5546.8077650457
5	83339	27219.362910428143	5546.4620907335
5	83344	27220.032879075422	5541.0772794018
5	83353	27223.514297487158	5538.6924635041
5	83415	27237.932796281258	5527.2021924688
5	83420	27238.479568576354	5521.1114761606
5	83429	27240.770555902333	5521.3727867721
5	83443	27244.76462566872	5524.8018902923
5	83454	27251.800139173191	5526.9882126445
5	83476	27258.135522741204	5532.6610741546
5	83507	27268.478700012425	5530.2324784695
5	83513	27269.866815238977	5526.1072343456
5	83519	27271.732282480927	5521.2927790407
5	83528	27278.522282816318	5527.7380450105
5	83593	27301.461634727192	5550.6097523271
5	83598	27302.553069407681	5546.9457402387
5	83605	27310.138294148571	5547.2645795623
5	83626	27315.939593438877	5537.9208832553
5	83633	27320.893084542583	5534.3015322808
5	83660	27330.635530549545	5542.8712377698
5	83679	27343.16719407452	5548.1579932671
5	83770	27370.747748012137	5572.3679558592
5	83781	27379.961803265103	5579.4627320848
5	83786	27380.023443649646	5566.8599408559
5	83791	27380.360848829128	5553.6860656648
5	83803	27386.53681067958	5559.648049506
5	83856	27411.707660471147	5582.9969388743
5	83863	27417.289684131227	5588.4864036228
5	83876	27420.103001917339	5588.9882157348
5	83884	27422.7725631192	5587.7970671874
5	83892	27425.545311945262	5582.5960856552
5	83916	27432.300533839331	5581.2812241844
5	83949	27445.035020500158	5592.1279234424
5	83964	27451.110787681129	5597.0506895569
5	84010	27469.562157316398	5605.7115305609
5	84017	27472.370313849842	5592.3753319235
5	84058	27486.788309911473	5604.8364809948
5	84105	27493.292682892447	5609.7009707864
5	84115	27494.454581579296	5610.3321432439
5	84120	27495.393303108373	5608.5386370315
5	84132	27503.877051025284	5615.4349173553
5	84139	27506.48308215344	5609.4055659119
5	84154	27513.61546642699	5588.8005123519
5	84180	27524.897810201391	5595.5894412893
5	84254	27544.331388889398	5606.3195536126
5	84261	27545.210152198593	5604.9747900056
5	84268	27548.360467768269	5606.7292302561
5	84277	27554.108405536437	5607.6327161383
5	84295	27562.338224610278	5612.3485041932
5	84333	27572.628458607649	5620.5691554513
5	84347	27577.370224925186	5624.0187255278
5	84374	27582.04647672581	5627.9175150175
5	84381	27582.116639475458	5622.8849175825
5	84389	27582.641355327408	5619.2802368666
5	84402	27586.450069543433	5607.2769633319
5	84409	27589.599726603912	5605.6962599957
5	84414	27590.729610093019	5602.0106070649
5	84427	27603.829427999915	5604.6961580638
5	84448	27608.368373411405	5595.4603757972
5	84453	27608.445064353903	5592.5498551709
5	84458	27608.713394930052	5592.801600298
5	84467	27612.488372120293	5590.2061563045
5	84478	27614.353775539332	5580.1077498108
5	84483	27615.045292546511	5574.271103599
5	84492	27615.872188390062	5570.5286688144
5	84497	27617.553171957271	5570.2167002609
5	84508	27620.003830037223	5569.4242466611
5	84545	27633.701042264507	5582.4362208943
5	84567	27642.442114637421	5584.8094181683
5	84573	27643.844117242652	5585.3448461208
5	84578	27646.806468550277	5585.5703444943
5	84589	27651.440376133698	5578.757758143
5	84600	27657.684825267004	5584.2070218249
5	84629	27664.283318500909	5576.8682984229
5	84659	27678.163990465246	5569.5845781111
5	84666	27679.985577564734	5570.3251791791
5	84685	27682.368395178179	5537.6909885823
5	84697	27686.838617582474	5541.5441460056
5	84922	27770.78230362447	5625.113805455
5	84935	27774.275090075182	5624.7464122114
5	84943	27778.51255953014	5623.9594807312
5	84950	27780.237267617817	5624.0290421679
5	84963	27785.466177688344	5625.7922245342
5	84968	27788.0559785897	5627.1159295173
5	84975	27791.332843669323	5618.5498019648
5	84980	27793.663275556037	5619.5169606967
5	84985	27796.216671815095	5620.0339013073
5	84994	27803.043608594585	5617.4018512964
5	85011	27806.707519481534	5610.8075332659
5	85018	27809.194116501827	5601.6908395832
5	85029	27815.96569485743	5607.1960518512
5	85066	27828.757435715658	5606.5768246638
5	85164	27863.906714027133	5641.1128722677
5	85370	27938.004999039261	5689.9829935615
5	85377	27942.708679271547	5692.7693232141
5	85388	27945.662358165321	5691.2988662789
5	85403	27951.469275561146	5688.2792734399
5	85419	27954.320813370283	5688.4661926412
5	85429	27955.349327034093	5687.5806810309
5	85434	27955.77995176237	5684.1932807094
5	85439	27956.333441469328	5682.1994264122
5	85444	27957.553239612993	5674.7144388134
5	85458	27966.569275124394	5676.1221723833
5	85491	27977.88804025073	5681.5585562629
5	85583	28002.87098278122	5703.6845011351
5	85588	28003.148200743856	5690.6098121215
5	85594	28004.613886271417	5688.1941737646
5	85613	28008.785211214511	5689.4771871804
5	85778	28058.098439302599	5734.8958438325
5	85795	28062.046512532321	5733.485090486
5	85811	28064.760110703828	5734.7667974954
5	85824	28069.49386974251	5736.6594906215
5	85867	28080.46864078519	5744.0234260028
5	85874	28081.391877682949	5744.1336423155
5	85892	28091.255662559981	5742.8158007698
5	85897	28091.77875303149	5741.3008267382
5	85902	28093.067807100399	5740.1927142369
5	85923	28110.337347041687	5751.6108406708
5	85954	28120.741434619781	5759.7979998505
5	85963	28123.77122923148	5758.3019142231
5	85975	28124.361718303818	5757.9740080757
5	85983	28125.222396461442	5757.6844505661
5	85999	28129.846384422175	5759.4153315345
5	86011	28133.875135556143	5762.6011430337
5	86018	28137.419251012445	5766.0296121131
5	86025	28142.14694215896	5752.4512503444
5	86035	28144.385736262366	5753.6355703513
5	86040	28144.650809606113	5749.1973403435
5	86048	28148.467966591264	5746.5090783622
5	86059	28155.554087090032	5749.2236019118
5	86084	28161.60545493731	5743.6684222921
5	86097	28166.400765123919	5745.961564959
5	86120	28176.672892393427	5744.2908075121
5	86136	28188.022011240406	5736.0048259051
5	86141	28188.164265278331	5731.3978768611
5	86152	28191.199564609387	5734.1982742513
5	86184	28204.460617245613	5746.2559830999
5	86245	28219.821369422242	5755.3747281578
5	86262	28226.386303834016	5756.3062353258
5	86267	28227.980033316173	5748.0167842859
5	86276	28233.602308355615	5751.5530183194
5	86306	28236.802391500554	5746.2998434092
5	86343	28248.875524492229	5749.7671346925
5	86356	28254.67026717542	5748.1777574166
5	86365	28256.976471572411	5743.8788083525
5	86410	28274.705560640275	5761.4312697061
5	86425	28283.021982831567	5760.3190377339
5	86463	28291.295756968233	5766.2738334178
5	86505	28302.635913511954	5764.3653791192
5	86510	28307.462011316676	5767.9313681606
5	86517	28308.946075448973	5766.8271828456
5	86529	28311.659888906136	5759.3728329472
5	86540	28318.499822471773	5765.8632632146
5	86609	28348.026480308711	5788.3489939794
5	86641	28357.102030599055	5795.4178467119
5	86648	28357.304689613713	5793.3659286763
5	86664	28360.438072409741	5789.9789935367
5	86675	28361.47966828929	5790.2639751698
5	86688	28363.943988821885	5790.8882114605
5	86734	28381.241822117145	5794.1590341366
5	86745	28382.970149106258	5793.8426296125
5	86750	28389.325504696318	5800.1441992248
5	86755	28390.955352113152	5796.21950882
5	86764	28394.830142890605	5795.1111305025
5	86937	28445.301935895573	5844.2532224076
5	86952	28450.798304846422	5848.6541828966
5	86969	28455.329691720327	5847.750255902
5	87003	28465.391395095269	5855.7086950391
5	87008	28466.493712070364	5843.9197393181
5	87019	28467.987939288224	5836.2031365818
5	87031	28470.593480264059	5837.3490773383
5	87050	28476.374111224125	5836.3914749742
5	87096	28491.426854330098	5849.75241908
5	87106	28494.652077374792	5839.4814490311
5	87118	28498.111988921011	5841.811525375
5	87170	28513.783356280123	5855.8726612984
5	87182	28515.980380035211	5844.8146336706
5	87195	28520.836476880544	5832.9272380633
5	87200	28523.905210788076	5824.0824196114
5	87214	28536.739673658284	5830.7018348463
5	87261	28550.312147683187	5841.0762810607
5	87295	28561.519736381784	5850.1178126885
5	87303	28564.13658811445	5833.0587108073
5	87314	28566.781874954017	5831.1150446429
5	87340	28580.121899826548	5835.5693112553
5	87375	28584.935971795119	5816.7030693542
5	87383	28589.153443270609	5818.2377275992
5	87402	28591.833278921865	5812.0146251452
5	87410	28595.749104152883	5813.9245124638
5	87416	28598.370743914054	5807.7302034693
5	87436	28609.742327920208	5818.6113738462
5	87542	28641.804846198265	5842.5295604103
5	87547	28642.955001740475	5841.7502233573
5	87556	28643.309252271694	5825.8751611194
5	87570	28648.040965260747	5821.6858514196
5	87584	28651.835224549876	5819.2497229222
5	87590	28652.479910390524	5816.1533394419
5	87599	28658.640581493005	5818.9208105811
5	87671	28679.647317336881	5834.8089355126
5	87678	28681.264013992267	5835.7320390919
5	87689	28686.096126824968	5836.7072212503
5	87706	28692.313062636917	5836.1447980053
5	87765	28701.702013683718	5820.2464766261
5	87775	28702.514333338674	5818.9624102417
5	87792	28712.303384808008	5824.1871865882
5	87896	28746.842887680154	5853.4991685543
5	87906	28747.708229871134	5845.176455571
5	87930	28756.216189267558	5853.2831653206
5	87944	28758.539534605309	5853.2269103838
5	87960	28766.632683998317	5857.4942419123
5	87969	28772.739969494866	5854.656663425
5	87990	28778.631877311281	5855.1373600678
5	88022	28793.455047128773	5868.0023490522
5	88027	28796.73230860273	5866.7790901177
5	88034	28800.570062096936	5865.2459750007
5	88039	28801.369989587252	5862.2379828185
5	88044	28801.900100956495	5843.5175738223
5	88049	28804.300216212597	5840.2094651249
5	88054	28805.754054359771	5838.6157855058
5	88079	28817.229280169234	5847.8316636791
5	88169	28842.127324085249	5863.3859462908
5	88180	28847.524372346401	5864.6344176587
5	88233	28864.841054787779	5877.9387830297
5	88252	28878.903463018866	5890.7057437805
5	88269	28885.977199207854	5895.8515661759
5	88323	28906.75867548653	5908.6742299906
5	88352	28913.67697936881	5914.4884279132
5	88407	28936.688151674466	5936.3614355332
5	88456	28947.802819986893	5938.7979382
5	88461	28948.627874487163	5932.2414754257
5	88482	28959.131674531752	5939.6443860724
5	88557	28974.254745445047	5954.5593295113
5	88569	28980.751056015957	5955.5768261207
5	88574	28981.386085555798	5952.0397095879
5	88579	28983.763290186672	5952.625768822
5	88592	28992.007126747113	5956.5829276824
5	88618	28995.963990757779	5958.9631841869
5	88625	29004.036010217751	5942.1229798594
5	88633	29005.41501756876	5940.3365842549
5	88640	29006.883269725588	5935.4037399972
5	88651	29010.008554755729	5936.0366671419
5	88658	29011.103567567384	5937.0660790873
5	88678	29016.21430719188	5936.5491287521
5	88710	29026.278070544606	5945.0197850321
5	88721	29027.93367917516	5941.090141642
5	88741	29035.200233096258	5946.0435547834
5	88746	29037.029306145342	5945.7585492889
5	88757	29043.794473074755	5946.228829494
5	88904	29096.131953140356	5996.896639424
5	88917	29101.240649198666	5993.9678965873
5	88953	29119.897489725545	6010.9713353696
5	88973	29124.861402211552	6009.3098424803
5	88978	29124.94078478292	6004.5367986785
5	88983	29127.817655819074	6003.4963454718
5	88990	29129.363128362081	6001.6241598539
5	89008	29136.034727822839	5996.2864600754
5	89029	29146.584456996716	6004.1087497189
5	89044	29152.009015804469	6008.2483150393
5	89073	29156.362089387016	6011.345185148
5	89082	29159.875804145686	6014.7650916331
5	89093	29165.612277765905	6016.4717225402
5	89114	29177.237233764567	6020.0021508608
5	89156	29185.309006110788	6018.7891432519
5	89163	29187.471071354502	6020.9059111146
5	89177	29195.630452821159	6028.4210985193
5	89194	29200.27661351681	6032.0967587944
5	89199	29202.292710657498	6026.9394396352
5	89204	29203.992148874919	6028.179785417
5	89218	29210.332559435053	6025.6809799751
5	89241	29216.96336562752	6030.9872401477
5	89252	29221.070180817274	6031.0834551037
5	89258	29223.573778055185	6028.3979031047
5	89268	29226.988015581	6026.6405966069
5	89292	29234.404020575623	6033.3276953511
5	89303	29239.355494176623	6036.9823771831
5	89321	29241.576327597024	6038.934890676
5	89326	29242.635717756842	6039.7160248751
5	89341	29250.226206301542	6041.7151124111
5	89377	29262.399928543391	6053.6575019251
5	89422	29275.265935235617	6066.1489562624
5	89427	29277.763723154188	6062.1651188741
5	89432	29279.213840175863	6049.4189987065
5	89441	29281.792797003739	6051.6887411136
5	89471	29291.815396823091	6053.2202490634
5	89484	29293.443696724573	6053.6552190105
5	89493	29294.651848851588	6051.6126966352
5	89531	29309.674511517247	6037.8664949763
5	89564	29328.270854100344	6051.2381037189
5	89569	29328.679580290184	6043.7850452302
5	89574	29330.094909257366	6042.2532348967
5	89579	29331.283048082172	6040.7326113098
5	89592	29337.012260697767	6041.4435792305
5	89610	29340.124243070512	6033.3538182357
5	89622	29342.204918602033	6035.3488621426
5	89637	29349.517508940489	6040.8865887474
5	89647	29350.791535996785	6040.952640047
5	89653	29356.598643988456	6026.5252947739
5	89659	29358.159808648328	6026.9021481332
5	89666	29360.322989177267	6023.4728559158
5	89680	29364.626411422207	6026.0699256399
5	89694	29372.029003749608	6031.045371642
5	89721	29379.022770232419	6035.9572218013
5	89732	29387.864463768808	6022.6845130258
5	89742	29389.819987561988	6021.5017709716
5	89749	29391.503289529345	6002.3951556436
5	89763	29397.863095869155	6000.1375952984
5	89794	29407.08138636035	6006.5629534408
5	89809	29409.466253722662	6006.1046367421
5	89880	29421.994288893761	6015.805775132
5	89886	29422.584774721865	6011.9193561352
5	89894	29424.792175526316	6012.1898844012
5	89906	29427.484969035578	6011.6885862576
5	89931	29434.813860142618	6010.5322356645
5	90053	29473.47897378907	6046.6397889553
5	90189	29512.797340838587	6082.9162935154
5	90200	29515.177540623355	6085.174069627
5	90210	29516.2096420873	6077.3227785704
5	90218	29517.153236111447	6070.0837377995
5	90232	29518.071223636542	6068.5363784648
5	90241	29519.545283957734	6063.1160099662
5	90246	29522.820905861561	6051.0074883467
5	90251	29523.948398437304	6047.3839824746
5	90264	29527.094856942011	6038.6299963511
5	90282	29533.119501104616	6042.705215323
5	90318	29541.429461980025	6034.3183933964
5	90325	29544.870559551565	6037.1824360197
5	90334	29550.151455281973	6040.0383030756
5	90438	29580.787558485603	6057.17942132
5	90443	29582.143459392701	6047.8669554047
5	90448	29583.554295041502	6045.3465234329
5	90453	29583.607367129364	6044.0066698343
5	90458	29588.21808350673	6036.7687081842
5	90467	29591.382304674414	6039.0393271096
5	90499	29601.487758407858	6048.584588956
5	90545	29611.838314443416	6049.9228245041
5	90559	29616.368288724901	6053.5255886555
5	90569	29617.425928538007	6042.8133250862
5	90579	29621.364889081431	6032.1875650498
5	90596	29629.379222176355	6036.3380769658
5	90635	29644.611456864611	6050.9192646192
5	90773	29685.982025713637	6082.7941595269
5	90785	29690.389533676606	6085.3589289071
5	90795	29691.006314722132	6079.9966293264
5	90808	29695.635704002712	6079.6666224335
5	90813	29697.840042447391	6074.996769464
5	90818	29700.3542415855	6071.2384984631
5	90823	29701.268061132646	6068.0275580233
5	90830	29702.60252063725	6055.706207017
5	90868	29710.004955318777	6063.0485812988
5	90873	29712.968342827335	6053.4083040007
5	90888	29718.65898956726	6056.8236405834
5	91111	29785.460623687534	6120.2350650058
5	91120	29789.323851083052	6123.1687998654
5	91201	29810.487673307657	6137.970274036
5	91206	29810.490593908058	6133.3437023436
5	91213	29812.793326243063	6133.7746272408
5	91220	29815.341052498956	6118.3822969606
5	91228	29818.095224598414	6112.1623526877
5	91239	29821.469504130434	6101.3884469522
5	91246	29826.997687047822	6105.3274119078
5	91251	29829.5250212886	6106.887390955
5	91256	29830.197497806741	6100.6950987039
5	91267	29834.823598557995	6097.5499418152
5	91289	29840.515508011013	6094.6618171785
5	91297	29845.844290116073	6098.5861493019
5	91304	29848.872321801889	6099.242494598
5	91329	29859.330521002586	6107.9014115326
5	91391	29880.507792571851	6125.7891710197
5	91406	29888.864527197032	6125.0993839293
5	91418	29890.583094324993	6119.3646488039
5	91430	29895.384168882431	6112.8021118072
5	91441	29902.976924694972	6116.7999300314
5	91453	29905.390924502765	6117.7317259641
5	91462	29908.551726543603	6107.5272783646
5	91475	29914.078187606954	6109.5962562653
5	91489	29920.407165157338	6115.4427703654
5	91494	29921.122605371186	6114.5039395571
5	91505	29922.640442851605	6091.7438507596
5	91532	29928.283883092929	6093.4405340233
5	91628	29953.261134368079	6113.494066653
5	91633	29953.757545170856	6112.7487633053
5	91644	29956.632731687896	6103.1877157978
5	91697	29970.628239749188	6115.3835684381
5	91702	29973.284247156592	6115.3141872713
5	91707	29974.967005253918	6101.1146973779
5	91714	29980.359404939114	6104.6711559998
5	91753	29989.809465109372	6106.5963574345
5	91760	29991.574311510768	6097.6845201183
5	91772	29997.650470317233	6102.9842387981
5	91782	29999.227610514711	6096.8358898936

