version 2
run Third-n5-2-20191016-17:04:46-7204
attr configname Third-n5
attr datetime 20191016-17:04:46
attr experiment Third-n5
attr inifile omnetpp.ini
attr iterationvars ""
attr iterationvarsf ""
attr measurement ""
attr network org.omnetpp.queueing.Pizza
attr processid 7204
attr repetition 2
attr replication ""
attr resultdir results
attr runnumber 2
attr seedset 2
param **.PS.maxInventoriedPS 5
param **.U1.interArrivalTime exponential(4s)
param **.U2.interArrivalTime exponential(6s)
param **.PS.serviceTimeForInventoryU1 exponential(1.4s)
param **.PS.serviceTimeForInventoryU2 exponential(1.4s)
param **.PS.serviceTimeDirectU1 exponential(1.8s)
param **.PS.serviceTimeDirectU2 exponential(1.8s)
param **.PS.probabilityProducing 0.8
param **.CS.serviceTimeU1 exponential(2.3s)
param **.CS.serviceTimeU2 exponential(2.3s)

vector 0 Pizza.EntryQueueU1 queueLength:vector ETV
attr interpolationmode sample-hold
attr title "queue length, vector"
vector 1 Pizza.CS queueLength:vector ETV
attr interpolationmode sample-hold
attr title "queue length, vector"
vector 2 Pizza.EntryQueueU2 queueLength:vector ETV
attr interpolationmode sample-hold
attr title "queue length, vector"
vector 3 Pizza.sink lifeTime:vector ETV
attr interpolationmode none
attr title "lifetime of arrived jobs, vector"
attr unit s
vector 4 Pizza.sink lifeTimeU2:vector ETV
attr interpolationmode none
attr title "lifetime of arrived jobs, vector"
attr unit s
vector 5 Pizza.sink lifeTimeU1:vector ETV
attr interpolationmode none
attr title "lifetime of arrived jobs, vector"
attr unit s
0	0	0	0
0	7	2.290767958509	1
0	14	7.309071664081	0
0	36	14.096145449219	1
0	40	15.292455569405	2
0	43	16.642548810784	1
0	49	17.384776070314	2
0	50	17.453125169952	1
0	56	17.654836940931	2
0	57	17.737214111471	1
0	64	18.060890515695	2
0	66	19.085686169489	3
0	68	19.305334417996	2
0	74	20.088953808787	3
0	75	20.29552052464	2
0	80	20.813767938546	1
0	86	20.823795801777	2
0	90	23.256565997126	1
0	96	23.463185740405	2
0	100	26.886243649592	1
0	106	28.480520639488	0
0	152	42.518083713082	1
0	153	48.757113337629	0
0	177	59.592360503384	1
0	178	59.923386972995	0
0	217	76.92409765139	1
0	220	78.05511801516	0
0	244	85.348892256004	1
0	246	87.022556329083	2
0	248	87.501188469003	3
0	252	89.424268795652	4
0	257	93.228013787352	3
0	262	95.692509278871	2
0	268	96.291814834118	1
0	277	98.783119673341	0
0	291	102.55361656799	1
0	296	104.660646582573	0
0	302	106.208592204476	1
0	305	106.723046031423	0
0	325	112.610913008512	1
0	331	116.518933243963	2
0	333	118.069347071013	3
0	334	119.33809372428	2
0	339	120.085487306389	1
0	346	120.560588317704	0
0	352	121.244823429573	1
0	353	121.297248161729	0
0	362	122.201749368102	1
0	364	123.58005175202	0
0	386	130.682481897617	1
0	388	130.882891960293	2
0	390	133.699009754456	3
0	392	134.75548787117	4
0	394	136.387930274005	5
0	395	137.084910486128	4
0	401	137.654278895244	3
0	412	140.511499166151	4
0	413	140.76812631416	3
0	419	144.621733320987	2
0	424	144.664143007552	1
0	430	144.735597340648	0
0	442	146.927022975281	1
0	444	148.701188401438	2
0	445	150.290685644049	1
0	451	150.712292567954	2
0	453	151.595014487376	3
0	454	151.665822495713	2
0	460	151.718370170421	3
0	462	151.728713830798	4
0	465	152.968356496487	3
0	470	154.283615614372	2
0	475	154.817203889837	1
0	484	155.595277624771	2
0	485	156.343697293782	1
0	490	156.443415193386	0
0	510	161.207915995767	1
0	511	162.833119491517	0
0	521	165.730058756717	1
0	524	167.319956500687	0
0	551	177.45689356354	1
0	553	177.586180119604	2
0	555	178.48296828573	3
0	559	178.763521991689	4
0	560	179.536353719787	3
0	566	181.478952045619	2
0	574	182.72091675278	3
0	577	184.643800669765	4
0	579	185.631603406071	5
0	584	185.975985296027	4
0	590	187.881956465419	3
0	598	191.392143308098	2
0	604	191.693606665178	3
0	605	192.361249360673	2
0	614	193.609792868435	1
0	620	194.368101056355	0
0	629	198.465301172054	1
0	630	198.486774214266	0
0	645	204.971925677239	1
0	646	207.605328095931	0
0	677	213.473769134175	1
0	683	217.587716535514	2
0	685	217.593884229583	3
0	686	217.948230862368	2
0	692	219.223575310561	1
0	697	219.687559681352	0
0	714	225.321272910703	1
0	715	229.432611480339	0
0	728	230.87050461972	1
0	729	231.499055294845	0
0	738	233.944949585376	1
0	740	234.275165106924	2
0	741	234.550784172741	1
0	748	235.385234095399	2
0	749	235.841998312276	1
0	756	239.492020626652	2
0	757	240.23115981303	1
0	762	240.675285921072	0
0	768	241.219607325957	1
0	769	241.8739916296	0
0	801	249.880081872873	1
0	803	251.70219156459	2
0	809	258.70046002539	3
0	814	260.762438974374	4
0	815	261.716261599928	3
0	821	262.252728400889	2
0	826	262.379168434085	1
0	833	264.859486919075	2
0	836	265.938264706145	3
0	837	267.523074242018	2
0	843	269.068617843318	1
0	848	270.253651119091	0
0	861	271.131813281521	1
0	866	275.682324604229	2
0	867	275.746876777001	1
0	873	276.559749151197	2
0	874	276.985175436411	1
0	879	277.908529988671	0
0	886	278.415970079807	1
0	887	278.574136399594	0
0	901	280.547005308937	1
0	904	280.962327847768	0
0	911	282.045126623173	1
0	922	286.773108652204	2
0	926	288.34889880528	1
0	934	289.023566083358	0
0	941	290.028588312558	1
0	942	290.173319167233	0
0	953	291.19667065398	1
0	956	291.485493890843	2
0	957	294.063395170475	1
0	963	295.01479357219	0
0	989	302.428427011742	1
0	993	303.921557690793	2
0	994	304.006357861396	1
0	1004	312.412589331508	2
0	1005	312.637458879918	1
0	1010	312.879698472251	0
0	1019	313.985096310927	1
0	1021	313.995038345783	2
0	1022	317.110835212183	1
0	1028	317.798892460095	2
0	1034	323.503042359121	1
0	1041	324.43363479938	0
0	1049	327.100039795814	1
0	1050	327.872611998234	0
0	1059	333.263380326076	1
0	1062	334.126677731018	0
0	1071	338.153326520851	1
0	1073	339.271891952791	2
0	1074	339.512831305787	1
0	1080	340.020318336455	0
0	1087	341.154348384312	1
0	1091	344.623145838941	2
0	1092	345.484646949072	1
0	1097	346.056963032565	0
0	1104	346.645212027515	1
0	1105	347.603192092581	0
0	1133	351.845759171746	1
0	1136	353.641033120322	0
0	1165	359.037232707272	1
0	1170	361.10612596657	0
0	1176	361.488365340608	1
0	1185	366.481385919001	0
0	1192	367.659756008309	1
0	1194	372.596185916575	2
0	1198	378.112428714995	3
0	1200	380.056114688926	4
0	1204	380.853668148049	5
0	1206	381.224978171618	6
0	1209	383.245837950359	5
0	1218	384.619588918733	6
0	1222	388.531823152029	7
0	1224	388.740090677029	8
0	1225	388.772130721351	7
0	1230	389.290089494034	6
0	1236	392.422929839729	7
0	1238	393.706580410648	8
0	1241	396.609611469536	7
0	1247	397.145368235718	8
0	1253	401.154799999415	7
0	1259	402.578886109938	6
0	1265	403.887850563956	7
0	1267	404.803200638261	8
0	1271	408.926960554904	9
0	1272	409.095512480794	8
0	1279	413.710748928195	7
0	1284	414.092314455021	6
0	1290	415.149173921641	5
0	1299	419.640510135735	4
0	1305	420.588262582242	3
0	1310	420.733400784637	2
0	1320	421.943956192306	3
0	1322	422.197842548135	4
0	1325	424.552279739808	3
0	1330	425.619474811394	2
0	1336	426.129580309351	3
0	1337	427.741622806529	2
0	1343	428.541472828048	3
0	1344	429.148484181185	2
0	1349	430.386052285293	1
0	1355	432.782254086271	2
0	1357	436.337181775522	1
0	1362	436.424105772301	0
0	1387	445.115113500773	1
0	1389	447.480857148729	2
0	1391	448.014924002697	3
0	1392	449.328950196265	2
0	1398	452.229404055497	1
0	1403	452.558992632798	0
0	1411	453.764105289005	1
0	1412	454.630747166494	0
0	1418	457.348872288276	1
0	1419	457.469871047947	0
0	1435	458.875674736018	1
0	1438	461.125022824297	0
0	1444	461.202122539427	1
0	1447	463.022806880924	2
0	1448	464.881644783673	1
0	1455	466.241625064671	2
0	1456	467.70885664532	1
0	1462	467.911743106592	2
0	1464	471.950799128209	1
0	1469	473.181300074059	0
0	1487	478.179870195204	1
0	1489	480.435510600341	2
0	1490	481.26866324498	1
0	1496	481.313213760858	2
0	1498	481.613510456885	3
0	1499	482.4038974888	2
0	1506	483.671285620655	1
0	1511	484.511162683394	0
0	1522	484.764761160313	1
0	1523	485.220486606582	0
0	1530	485.993795544459	1
0	1533	487.937872323546	0
0	1544	489.567265639979	1
0	1547	490.896013461011	0
0	1572	495.77684085957	1
0	1573	495.802808435832	0
0	1580	498.511705345367	1
0	1582	499.212143286053	0
0	1609	504.11144241047	1
0	1610	506.926157878577	0
0	1627	511.34753034388	1
0	1629	512.602058876443	2
0	1633	514.065055546729	3
0	1634	514.517204424808	2
0	1639	515.34936898774	1
0	1645	515.406871637224	2
0	1648	516.057549286453	3
0	1650	517.316924811946	2
0	1655	517.777733122343	1
0	1662	520.032950930063	0
0	1680	524.045485978166	1
0	1683	526.603509633502	0
0	1690	528.855870084969	1
0	1691	529.109309569815	0
0	1707	534.618031351485	1
0	1708	540.908535049385	0
0	1723	544.787737840159	1
0	1726	549.822183921349	0
0	1739	558.475784435537	1
0	1744	559.932451393166	0
0	1773	569.502589231936	1
0	1777	570.882989847592	0
0	1787	574.702684080877	1
0	1792	581.895452890005	0
0	1800	583.157639825385	1
0	1801	583.883856579813	0
0	1811	586.330357713562	1
0	1815	588.912252152302	0
0	1828	593.327583084914	1
0	1830	593.484015601582	2
0	1832	595.829496568907	3
0	1834	597.90357378118	4
0	1837	599.231699136058	3
0	1845	600.133636754061	2
0	1851	600.636398821153	1
0	1858	602.156490709621	0
0	1867	603.990644031321	1
0	1869	605.065562089215	2
0	1870	607.540426079224	1
0	1875	608.365858370693	0
0	1881	609.214866622226	1
0	1882	609.333627149315	0
0	1901	614.161798566316	1
0	1902	615.974502176692	0
0	1924	619.84641508735	1
0	1926	619.885482839794	2
0	1927	621.178590111371	1
0	1933	621.26173703793	2
0	1935	621.471601728159	1
0	1944	623.851862885874	0
0	1958	629.00083000411	1
0	1961	630.614411553715	0
0	1967	630.958422723015	1
0	1971	633.807580453343	2
0	1975	638.641404455029	3
0	1977	639.989242670184	4
0	1978	641.167462128579	3
0	1988	642.772154997179	4
0	1990	645.152935951309	3
0	1996	645.420222954291	4
0	1997	646.126869016918	3
0	2004	647.628411314812	4
0	2007	650.110072395832	5
0	2010	656.348870461378	4
0	2019	657.930576893503	5
0	2021	659.293155374418	6
0	2022	659.513247543968	5
0	2030	663.409495646805	4
0	2035	663.582596616942	3
0	2041	663.613221548865	4
0	2043	663.77428399144	5
0	2047	665.932738321565	6
0	2048	666.536239061964	5
0	2056	669.641608528852	6
0	2057	671.331520799774	5
0	2063	671.752033254639	6
0	2066	672.831169268846	5
0	2075	674.869822381463	4
0	2081	675.271557850101	5
0	2082	675.46522802352	4
0	2088	677.778509509381	3
0	2096	683.507580790003	2
0	2102	683.692405822492	3
0	2103	684.147177288198	2
0	2108	684.391023309327	1
0	2113	684.502059169178	0
0	2135	696.292559881778	1
0	2136	697.053696002745	0
0	2142	697.072049992917	1
0	2144	700.692685806182	0
0	2150	701.788805984315	1
0	2153	702.652853752972	0
0	2159	705.814082906155	1
0	2162	707.261021896605	0
0	2177	710.485097381771	1
0	2187	720.573557376377	2
0	2191	721.74166167665	3
0	2193	724.270266417255	4
0	2194	725.099896166635	3
0	2200	725.633980777779	4
0	2206	730.489767205077	5
0	2211	735.543748227931	4
0	2220	737.733648529206	3
0	2229	741.788257812624	4
0	2231	743.527487630972	5
0	2232	744.261013892271	4
0	2242	745.317052841063	5
0	2243	745.382707339891	4
0	2249	745.933726311254	3
0	2259	747.428778267398	2
0	2267	748.333068908875	1
0	2273	749.745001198412	0
0	2283	757.11435440139	1
0	2284	758.752586269097	0
0	2305	767.439290012703	1
0	2306	767.620818243649	0
0	2330	771.132000332631	1
0	2331	772.67704725382	0
0	2337	773.060485259862	1
0	2341	774.435270673168	2
0	2342	774.72431446138	1
0	2348	776.242650101481	0
0	2367	779.481613456348	1
0	2368	779.704118294045	0
0	2393	788.413036213853	1
0	2395	788.858659931579	2
0	2396	789.8397893872	1
0	2402	790.089394066727	2
0	2407	792.13692506741	3
0	2409	792.360221285187	4
0	2412	793.006572758034	3
0	2419	794.805184393519	2
0	2424	795.100026549058	1
0	2429	796.447915701734	0
0	2468	813.372201609439	1
0	2474	816.305362426315	0
0	2483	818.739935847906	1
0	2485	819.357741875551	2
0	2487	820.278416777484	1
0	2492	820.302722785973	0
0	2504	821.737061702802	1
0	2505	821.778678635156	0
0	2514	823.741290299491	1
0	2518	826.444534248173	2
0	2520	826.453380178033	3
0	2521	827.600729090802	2
0	2527	828.012098477422	3
0	2529	828.494621342589	2
0	2534	828.858227784345	1
0	2542	830.562885400284	2
0	2543	830.752406349863	1
0	2551	832.452811302137	2
0	2553	832.870039573025	3
0	2556	833.558603355226	4
0	2558	834.70644788952	5
0	2560	834.714151087893	6
0	2561	834.863867819194	5
0	2566	835.202939595276	4
0	2572	835.540382318986	5
0	2575	836.181006384131	6
0	2578	837.66797482588	7
0	2579	838.1713809484	6
0	2584	838.894739400006	5
0	2590	839.804366701669	4
0	2598	842.258375461829	3
0	2604	842.554498610962	4
0	2607	843.984346287562	5
0	2609	844.259992051978	6
0	2610	844.796228376421	5
0	2617	845.482851755894	6
0	2618	845.839791795614	5
0	2623	846.426969434706	4
0	2632	847.345906496338	5
0	2634	848.358900985954	6
0	2636	848.411249884603	7
0	2638	849.456437677747	8
0	2639	849.85956771417	7
0	2647	850.886358370932	8
0	2648	851.392559884997	7
0	2655	852.795097607256	6
0	2662	854.131534842351	5
0	2668	855.862115021084	6
0	2671	856.417646995596	7
0	2676	861.677068508094	8
0	2678	862.685310865836	9
0	2679	863.878689806095	8
0	2685	866.815413780776	9
0	2686	867.095171114703	8
0	2693	867.98129666711	7
0	2699	868.534411230154	6
0	2709	873.687534969136	5
0	2716	874.929051884358	4
0	2721	875.637245910463	3
0	2728	876.395477637485	4
0	2730	877.942355886501	3
0	2736	879.726462449389	4
0	2737	880.203652802379	3
0	2743	881.281568181872	2
0	2748	881.666111276826	1
0	2754	882.822234910391	2
0	2757	885.554398293355	3
0	2758	886.064200502327	2
0	2763	887.482514942199	1
0	2768	888.300425822046	0
0	2780	889.537914265669	1
0	2783	892.933126307081	0
0	2815	899.367258924282	1
0	2817	899.929743974871	2
0	2819	901.224970173196	3
0	2820	901.993590025045	2
0	2826	902.465389009569	1
0	2832	904.452290445911	0
0	2838	905.150639568146	1
0	2841	908.124626454276	0
0	2901	923.037521086617	1
0	2906	926.208320520383	0
0	2936	935.029252695484	1
0	2938	936.484360017752	2
0	2941	940.515834644172	1
0	2947	942.622091867235	0
0	2953	942.781464096477	1
0	2955	945.817301134759	0
0	2985	959.18983647944	1
0	2987	959.817179872184	2
0	2992	960.907062272305	1
0	3000	963.618123437103	0
0	3028	970.557756159224	1
0	3033	971.736181000203	0
0	3046	974.166489058807	1
0	3052	976.550934750387	2
0	3054	980.630033460945	3
0	3056	981.019737167245	4
0	3057	982.754822131906	3
0	3063	986.319977352719	2
0	3068	986.643290147388	1
0	3073	987.123933122704	0
0	3090	991.776157927574	1
0	3092	992.179362486938	0
0	3112	994.489721886259	1
0	3116	994.612197604692	2
0	3118	995.500998246019	3
0	3120	997.748451448511	4
0	3124	999.232064842853	5
0	3125	1002.409120303571	4
0	3131	1004.403565993688	3
0	3137	1005.892512964039	2
0	3145	1008.178647069277	1
0	3153	1009.157944598072	0
0	3159	1010.30032857184	1
0	3160	1010.554686608056	0
0	3176	1014.65720342236	1
0	3177	1016.185187875774	0
0	3193	1018.238961997548	1
0	3195	1018.269295819779	2
0	3199	1022.157458609263	1
0	3204	1022.267783817082	0
0	3227	1027.788678638673	1
0	3229	1028.305858724306	2
0	3231	1029.223011997125	1
0	3238	1030.841038109503	0
0	3255	1033.70424352241	1
0	3257	1035.653667714898	2
0	3261	1038.348759183212	3
0	3270	1042.72873651548	2
0	3276	1042.999408040553	1
0	3287	1044.939376717591	0
0	3309	1055.347713762965	1
0	3311	1055.516831019412	2
0	3314	1056.445026001033	3
0	3315	1056.573786506623	2
0	3320	1056.833324187388	1
0	3326	1058.316046175778	0
0	3347	1069.885877083359	1
0	3348	1071.972699253425	0
0	3354	1072.083895578091	1
0	3357	1073.265450475028	2
0	3358	1073.341573038489	1
0	3363	1073.928479455844	0
0	3379	1078.665268900459	1
0	3383	1080.026602950599	0
0	3391	1082.163620006823	1
0	3393	1083.168225960468	2
0	3395	1085.45864188008	1
0	3400	1085.508909675242	0
0	3407	1087.320115814945	1
0	3411	1090.283798716341	2
0	3413	1091.573150240249	1
0	3421	1095.56679291565	0
0	3434	1096.654795844793	1
0	3439	1099.35071472723	2
0	3442	1100.386911871885	1
0	3453	1103.157102254678	0
0	3480	1106.748201605636	1
0	3481	1106.915991925162	0
0	3498	1111.746537917906	1
0	3500	1112.994636349186	2
0	3502	1114.728299559922	3
0	3508	1116.388991190474	4
0	3510	1118.809600693539	5
0	3511	1119.281347347147	4
0	3516	1119.452076606068	3
0	3522	1120.688962414412	2
0	3531	1122.259532020863	3
0	3533	1123.00809733128	4
0	3534	1124.302231515389	3
0	3541	1126.449447503834	2
0	3547	1127.888599155314	3
0	3553	1129.861887317785	4
0	3556	1132.331085761262	3
0	3565	1134.79575832737	4
0	3567	1135.330053789615	5
0	3568	1139.867199282547	4
0	3575	1143.720380329794	5
0	3578	1148.157952028423	4
0	3585	1148.246767246257	5
0	3589	1148.669176454661	6
0	3592	1150.903398757495	5
0	3597	1151.466128875181	4
0	3605	1153.602504938585	5
0	3606	1154.792934162201	4
0	3611	1155.246909982586	3
0	3617	1157.745338071933	2
0	3625	1162.482724974152	1
0	3630	1163.469476558861	0
0	3638	1168.668025174979	1
0	3639	1169.425463985897	0
0	3645	1172.366987425825	1
0	3646	1173.569147110425	0
0	3652	1173.948767315143	1
0	3653	1175.081033109905	0
0	3700	1191.424178462492	1
0	3702	1191.909297157097	2
0	3704	1192.314290753863	3
0	3706	1193.570275507691	4
0	3710	1197.612781150591	5
0	3712	1197.855915378372	6
0	3714	1199.84681218215	7
0	3715	1200.307562943529	6
0	3721	1202.316237901587	5
0	3731	1206.787626164804	4
0	3736	1207.378651976601	3
0	3742	1207.482856478491	4
0	3748	1211.032543237941	3
0	3754	1211.686304470237	2
0	3759	1211.740221444203	1
0	3765	1211.830417655797	2
0	3768	1213.433546587257	1
0	3775	1213.758708039855	0
0	3781	1215.55964926452	1
0	3782	1215.815924003174	0
0	3805	1225.417534460757	1
0	3806	1227.562755907192	0
0	3815	1232.922669478885	1
0	3818	1235.637000740424	0
0	3831	1239.390879869525	1
0	3833	1241.350036408397	0
0	3858	1246.504180953828	1
0	3861	1246.902853805514	0
0	3873	1248.556740538002	1
0	3875	1248.914588806436	2
0	3877	1252.606564609995	3
0	3879	1252.964227540534	4
0	3882	1254.278315480478	3
0	3889	1255.872566315753	2
0	3895	1256.510817112735	3
0	3901	1257.172300220987	4
0	3903	1260.02829538377	5
0	3904	1261.358069180381	4
0	3909	1261.397893079781	3
0	3915	1262.196257195165	2
0	3922	1263.195589622797	1
0	3928	1263.830080617467	2
0	3932	1264.905636151201	3
0	3935	1266.928274223423	4
0	3936	1267.583448679724	3
0	3945	1270.76611088723	4
0	3947	1271.2881208974	5
0	3948	1272.885660310646	4
0	3953	1273.632699767999	3
0	3958	1273.974256683642	2
0	3964	1274.497766803134	1
0	3970	1274.633000276243	2
0	3972	1275.339061733235	1
0	3978	1275.607207441928	2
0	3980	1275.825057638044	3
0	3981	1277.722600723928	2
0	3987	1278.794964386748	3
0	3988	1278.863014191914	2
0	3993	1279.174980567955	1
0	3999	1281.205033407031	2
0	4002	1281.952990294747	1
0	4013	1287.171589905906	2
0	4015	1288.375794351742	1
0	4022	1289.004789109424	0
0	4031	1291.270866691056	1
0	4032	1291.777357497668	0
0	4056	1300.700092306525	1
0	4058	1301.167547451859	2
0	4059	1306.156916595545	1
0	4068	1306.842955903961	2
0	4070	1308.233619426082	3
0	4073	1313.136487553967	2
0	4078	1313.627494490307	1
0	4086	1315.527592269689	0
0	4110	1320.163028419948	1
0	4111	1323.586080738241	0
0	4160	1341.340340529081	1
0	4162	1341.4920582115	2
0	4165	1343.95356342676	1
0	4173	1347.935127738582	0
0	4185	1351.627766020584	1
0	4188	1351.945671832518	2
0	4190	1352.958730321204	3
0	4191	1354.234378177575	2
0	4199	1357.132182226031	1
0	4204	1358.16007043135	0
0	4210	1358.603464678482	1
0	4216	1360.919014477709	2
0	4224	1366.226943733485	1
0	4231	1367.71391212818	2
0	4233	1367.732065761361	3
0	4234	1368.486173916613	2
0	4245	1370.588131283485	1
0	4252	1372.501352169172	2
0	4253	1376.004275633026	1
0	4258	1376.213471526646	0
0	4301	1385.892342979223	1
0	4303	1386.348959654513	2
0	4305	1386.579037507976	3
0	4306	1386.962286123155	2
0	4312	1390.775237087264	1
0	4318	1390.952839088984	2
0	4319	1391.03535252308	1
0	4324	1391.24424959953	0
0	4356	1396.744670300936	1
0	4358	1397.706501411326	2
0	4364	1399.496823080584	3
0	4365	1401.78665492798	2
0	4372	1402.213812645343	1
0	4377	1403.840886442851	0
0	4388	1405.98545736467	1
0	4391	1407.681834105716	0
0	4397	1408.111386385023	1
0	4405	1409.72831320622	2
0	4406	1409.948811393692	1
0	4411	1410.180642183518	0
0	4417	1410.33031242769	1
0	4418	1411.292163809244	0
0	4435	1415.440690480513	1
0	4439	1417.614604480883	2
0	4441	1418.497203315979	3
0	4442	1418.814350111489	2
0	4448	1419.383094714579	3
0	4449	1419.560847028657	2
0	4455	1420.099891241035	1
0	4464	1421.210540469464	2
0	4466	1421.254856756518	3
0	4468	1422.572539181658	4
0	4471	1426.646287307886	5
0	4472	1428.170841363516	4
0	4477	1428.550759914793	3
0	4484	1429.245821177035	2
0	4490	1429.286343966891	3
0	4492	1429.896562509209	4
0	4501	1433.091438989602	5
0	4503	1433.849930585774	6
0	4504	1434.710632557369	5
0	4509	1435.314693707941	4
0	4514	1435.456078449315	3
0	4519	1435.94370717282	2
0	4524	1439.786748871985	1
0	4529	1439.890575330839	0
0	4537	1441.215361909263	1
0	4542	1442.880078586059	2
0	4543	1442.923231005996	1
0	4550	1443.810295809632	2
0	4551	1443.899875916717	1
0	4557	1444.992886614861	2
0	4559	1445.126605211984	3
0	4561	1445.468793055963	2
0	4569	1448.834579480579	1
0	4574	1449.94734669969	0
0	4591	1453.785672904406	1
0	4597	1456.242623187308	0
0	4624	1459.92046445304	1
0	4627	1466.462246061653	0
0	4657	1476.966738484216	1
0	4661	1478.052447197341	2
0	4663	1480.738679293085	3
0	4666	1481.584498531196	2
0	4671	1481.720251862213	1
0	4676	1481.911751894253	0
0	4683	1484.534222064927	1
0	4690	1490.337206656494	0
0	4699	1491.771413103008	1
0	4700	1492.788614708674	0
0	4706	1492.886731633147	1
0	4708	1493.639243010341	2
0	4710	1495.234088473981	3
0	4717	1497.082407401136	2
0	4724	1499.557765015795	1
0	4729	1500.859139142616	0
0	4738	1502.674837504051	1
0	4740	1503.105283923439	2
0	4742	1504.171425795049	3
0	4747	1505.492933591359	2
0	4752	1508.312299661992	1
0	4761	1510.078143802411	2
0	4763	1513.112388278397	1
0	4770	1515.015944945177	2
0	4773	1515.727477466541	1
0	4779	1518.669174986181	0
0	4796	1521.592939318933	1
0	4798	1523.666260450109	2
0	4800	1524.240867290043	3
0	4802	1524.63380120613	4
0	4803	1526.105285995484	3
0	4808	1526.714728369557	2
0	4814	1528.273867026165	1
0	4819	1529.442834734801	0
0	4826	1529.658955306153	1
0	4827	1530.548333326091	0
0	4868	1538.784214342237	1
0	4869	1538.785383761666	0
0	4881	1541.193431716928	1
0	4884	1543.458629741683	0
0	4922	1554.456423305497	1
0	4924	1554.477007521804	2
0	4927	1555.836341251234	1
0	4940	1559.387033803401	2
0	4941	1560.198309277777	1
0	4947	1561.987317093443	0
0	4953	1562.212297102921	1
0	4954	1562.311132310545	0
0	4964	1564.283597673669	1
0	4966	1564.444069767939	2
0	4967	1564.537396988432	1
0	4972	1564.6033040228	0
0	4978	1564.691795659739	1
0	4979	1565.522174187795	0
0	4989	1566.038624217092	1
0	4991	1567.281527136265	2
0	4997	1570.707630111589	3
0	4998	1571.178688505534	2
0	5005	1572.087881850143	3
0	5006	1572.104323479567	2
0	5013	1575.284454478252	1
0	5025	1578.543702784895	2
0	5027	1578.634958652225	3
0	5030	1580.446727913674	2
0	5037	1581.053813753327	1
0	5046	1583.319402785768	0
0	5052	1583.869098339504	1
0	5057	1588.057235906171	0
0	5065	1589.586263997309	1
0	5066	1589.755105182801	0
0	5089	1594.380934323302	1
0	5091	1595.216088264664	2
0	5092	1595.402191794441	1
0	5097	1595.878695580339	0
0	5109	1597.196106165454	1
0	5110	1597.367682169038	0
0	5118	1599.056129798325	1
0	5120	1599.685690711694	0
0	5137	1605.293988035087	1
0	5138	1607.053743267496	0
0	5148	1609.07929836498	1
0	5150	1609.151550918054	0
0	5164	1612.6377627463	1
0	5166	1613.926892389362	2
0	5167	1614.687462546722	1
0	5174	1617.213879338488	2
0	5176	1618.657159688881	3
0	5180	1622.333584175369	4
0	5182	1622.415890677607	5
0	5184	1624.152698940484	6
0	5185	1624.290647721941	5
0	5192	1630.088871869561	6
0	5193	1632.721683483407	5
0	5200	1637.085957465591	6
0	5203	1640.563437022346	5
0	5208	1641.291076812071	4
0	5213	1641.668231605047	3
0	5218	1643.159115780437	2
0	5224	1643.67399619765	1
0	5240	1651.13204202726	0
0	5264	1654.395372927057	1
0	5269	1658.354251614117	0
0	5295	1671.196822570538	1
0	5297	1671.89685294209	2
0	5301	1673.995104545595	3
0	5305	1675.989809233548	4
0	5309	1681.37212135497	5
0	5311	1681.819357501132	6
0	5316	1685.483664376491	5
0	5325	1686.961724617952	6
0	5326	1687.302440967257	5
0	5331	1687.850979095896	4
0	5339	1689.335598313087	5
0	5343	1692.944235154763	4
0	5349	1693.654108193058	5
0	5351	1693.686855640995	6
0	5353	1693.873307727525	7
0	5354	1694.870836169652	6
0	5359	1695.261742641555	5
0	5365	1695.387381067372	6
0	5368	1696.37977731851	5
0	5373	1696.698415884625	4
0	5378	1696.923217257123	3
0	5386	1702.848270057861	2
0	5392	1703.910049124911	1
0	5398	1704.410716889198	0
0	5425	1711.221516817614	1
0	5428	1711.940329652131	2
0	5430	1712.716715657291	3
0	5432	1713.354607132494	2
0	5442	1715.309783648007	1
0	5448	1715.886127426025	0
0	5469	1720.934991594572	1
0	5470	1722.183784198099	0
0	5484	1725.428537146846	1
0	5486	1726.25549552851	2
0	5488	1726.484794824269	3
0	5490	1729.006041723814	4
0	5491	1732.036273844092	3
0	5497	1733.851252721823	4
0	5498	1733.99749147389	3
0	5503	1735.777148684654	2
0	5511	1738.436397182572	1
0	5519	1740.983643367997	2
0	5520	1741.530836803574	1
0	5527	1742.191923763399	2
0	5528	1742.302148034839	1
0	5534	1743.204978772805	2
0	5539	1744.207006510554	3
0	5540	1744.477859922834	2
0	5551	1746.318968079179	1
0	5558	1750.925101591274	0
0	5589	1757.6985181415	1
0	5592	1760.712154336771	0
0	5607	1764.640400689325	1
0	5609	1765.038920707991	2
0	5613	1766.635877617988	3
0	5614	1768.649575760205	2
0	5621	1769.535290280374	1
0	5627	1770.124259059323	0
0	5648	1772.677229184051	1
0	5649	1773.177856135572	0
0	5655	1773.950280390058	1
0	5665	1778.44087775038	2
0	5666	1780.361323952141	1
0	5672	1782.093224363232	0
0	5693	1788.301960384937	1
0	5695	1790.127272262534	2
0	5696	1791.655658663704	1
0	5703	1794.297732571784	2
0	5705	1794.733001043489	3
0	5707	1796.417272398795	4
0	5710	1799.095843244386	3
0	5715	1799.120056552652	2
0	5720	1800.712393451152	1
0	5726	1800.917264518178	2
0	5728	1801.093555569683	1
0	5734	1801.31860737219	2
0	5735	1801.54125234684	1
0	5740	1804.009418792402	0
0	5750	1805.336437257707	1
0	5753	1807.453251519035	2
0	5755	1807.85528073189	3
0	5757	1808.945260360865	4
0	5758	1809.256266051106	3
0	5764	1809.781227216372	2
0	5769	1809.897763212474	1
0	5776	1810.565932810739	2
0	5777	1810.807355724308	1
0	5782	1811.120717493812	0
0	5791	1811.805303684205	1
0	5793	1813.13196052809	2
0	5794	1813.328561255731	1
0	5806	1815.719759421631	0
0	5812	1817.846923932909	1
0	5813	1818.571577906057	0
0	5819	1819.403463068895	1
0	5824	1820.606040385535	0
0	5830	1821.456817677761	1
0	5831	1822.110338008577	0
0	5837	1823.118243456516	1
0	5841	1827.170632692202	0
0	5858	1834.401665088539	1
0	5860	1835.487147975164	2
0	5864	1837.266060073551	3
0	5866	1837.313622399026	4
0	5868	1838.294801598924	5
0	5869	1839.82342070209	4
0	5876	1840.101112125518	5
0	5877	1840.194490145489	4
0	5883	1841.267463051766	5
0	5886	1844.191008157579	4
0	5895	1847.914865002611	5
0	5896	1849.122669716935	4
0	5903	1849.776666267152	5
0	5904	1850.93381014014	4
0	5911	1852.133779339451	3
0	5921	1853.653970029257	2
0	5932	1857.213274440888	1
0	5937	1857.745141777072	0
0	5956	1860.077582377953	1
0	5958	1860.403988115209	0
0	5966	1861.693638089702	1
0	5969	1862.37564410073	2
0	5971	1862.950041180977	3
0	5973	1863.21369195223	4
0	5976	1863.827566131836	5
0	5978	1865.798827508446	6
0	5981	1866.774667107122	5
0	5986	1867.751124372076	4
0	5994	1872.577314826453	5
0	5995	1875.575813162788	4
0	6000	1876.801315941549	3
0	6006	1877.195568904119	2
0	6012	1877.303164314332	3
0	6018	1882.879940535267	2
0	6023	1886.156960299264	1
0	6028	1886.173389149676	0
0	6047	1890.844057560141	1
0	6050	1891.826058179618	0
0	6062	1892.785411424947	1
0	6063	1893.897811429793	0
0	6084	1896.432687451972	1
0	6087	1897.441675413577	0
0	6101	1899.548567266402	1
0	6103	1900.195983136879	2
0	6104	1900.668108269104	1
0	6111	1901.029642120558	0
0	6117	1901.34672222135	1
0	6120	1904.01198266167	0
0	6133	1906.987835365668	1
0	6137	1910.133048409907	0
0	6165	1919.073615979414	1
0	6167	1919.981329556065	2
0	6171	1923.332374471622	3
0	6172	1929.529803081179	2
0	6181	1931.068684876343	3
0	6182	1931.085757236318	2
0	6188	1932.662891776286	1
0	6196	1934.785902346356	0
0	6205	1936.902531779299	1
0	6208	1939.303960623268	0
0	6215	1942.893828016001	1
0	6219	1946.191793148467	0
0	6231	1948.775557830757	1
0	6232	1949.322917742534	0
0	6259	1957.538065906187	1
0	6260	1958.424802095784	0
0	6296	1970.558816039801	1
0	6297	1971.798287778276	0
0	6306	1973.679459981504	1
0	6310	1975.38924348488	2
0	6311	1976.345510110812	1
0	6318	1977.884645394717	0
0	6328	1981.016190947789	1
0	6331	1987.101825725903	0
0	6371	2010.601301781887	1
0	6373	2010.711344554449	2
0	6375	2011.027983526332	3
0	6380	2011.3397287272	2
0	6385	2012.080863878549	1
0	6392	2017.982063006602	0
0	6403	2018.909189263348	1
0	6405	2021.713282894148	2
0	6406	2023.437561285712	1
0	6412	2024.299830490699	0
0	6418	2024.843473666424	1
0	6419	2025.977787104934	0
0	6438	2028.895457307063	1
0	6439	2029.411899597266	0
0	6448	2030.269205069631	1
0	6460	2037.643492734574	0
0	6487	2042.307470366157	1
0	6489	2043.003863741757	2
0	6495	2045.400883475652	1
0	6500	2045.703391505353	0
0	6510	2050.292287281025	1
0	6512	2051.306747308694	0
0	6542	2055.209489212425	1
0	6545	2060.110372121897	0
0	6552	2063.15442683442	1
0	6553	2063.521918652371	0
0	6559	2063.993541212199	1
0	6561	2066.439110641087	0
0	6582	2071.470872125402	1
0	6585	2072.408980228174	0
0	6593	2078.284158703926	1
0	6596	2079.448875906674	0
0	6616	2086.614436650362	1
0	6620	2087.764986207369	0
0	6657	2106.033958066168	1
0	6659	2106.830568531457	2
0	6660	2107.965099803089	1
0	6666	2110.043590729794	0
0	6681	2114.687522486601	1
0	6683	2114.856188318955	2
0	6687	2116.844173674307	3
0	6689	2118.226286558298	4
0	6692	2121.728596353943	3
0	6699	2123.692278630178	4
0	6700	2123.864178658402	3
0	6712	2128.227328191705	4
0	6713	2128.98386323408	3
0	6720	2132.207893894016	4
0	6722	2132.292440670918	5
0	6723	2138.602155156927	4
0	6728	2138.756250459233	3
0	6735	2140.459998446826	4
0	6738	2141.253091544297	3
0	6744	2141.885792495783	4
0	6750	2143.420953734773	5
0	6752	2143.866398698261	6
0	6753	2146.307598546231	5
0	6759	2146.734462011741	6
0	6762	2152.496011282745	7
0	6766	2156.793593154839	8
0	6771	2162.9940719914	7
0	6776	2163.105553419397	6
0	6781	2163.431113441623	5
0	6786	2167.463368116882	4
0	6794	2168.343351439161	5
0	6796	2168.728745657724	6
0	6799	2170.223945596878	5
0	6807	2171.147965847817	4
0	6814	2173.226950501742	5
0	6815	2173.665356198669	4
0	6820	2176.923800401438	3
0	6830	2177.794832090676	2
0	6835	2178.004689400867	1
0	6845	2179.30523429761	0
0	6882	2185.056071977274	1
0	6883	2185.810307035635	0
0	6903	2188.445802436348	1
0	6908	2192.395276805563	0
0	6916	2193.217933426384	1
0	6917	2193.663930423071	0
0	6923	2194.822040232513	1
0	6924	2196.092334307604	0
0	6941	2198.775077265398	1
0	6942	2199.707201644163	0
0	6957	2205.732252706224	1
0	6965	2207.939894927136	2
0	6968	2210.527719650524	3
0	6969	2212.007754333396	2
0	6975	2212.39033802878	3
0	6977	2215.237132481232	2
0	6983	2216.332569836407	1
0	6989	2216.548074607079	0
0	6996	2217.254657598721	1
0	6997	2218.376753591169	0
0	7007	2221.367757170377	1
0	7011	2222.951420148848	2
0	7013	2225.716709575865	3
0	7018	2229.48012772294	2
0	7023	2231.46423352353	1
0	7028	2231.765031265119	0
0	7049	2237.517137741432	1
0	7054	2239.746043698829	2
0	7057	2240.656961918445	3
0	7059	2241.16553431789	2
0	7066	2241.352473005918	1
0	7073	2243.751247099494	0
0	7083	2251.238684859106	1
0	7086	2251.545214869662	2
0	7087	2252.223824328304	1
0	7095	2255.06844370913	0
0	7101	2255.346673659795	1
0	7102	2255.981986845858	0
0	7149	2266.28931802936	1
0	7150	2266.795069452849	0
0	7164	2274.008567607808	1
0	7165	2274.271907757931	0
0	7183	2279.740280679555	1
0	7184	2280.841091736147	0
0	7221	2300.47195734362	1
0	7223	2301.041648813097	2
0	7225	2305.297188921622	3
0	7227	2305.309190621864	4
0	7229	2310.655355959714	5
0	7232	2315.154592370338	4
0	7240	2315.998473340575	5
0	7241	2316.242782603845	4
0	7246	2316.578149781806	3
0	7251	2319.898445907916	2
0	7259	2321.770513908385	1
0	7268	2325.833755153252	2
0	7271	2328.772889461105	1
0	7280	2331.176927985073	0
0	7295	2334.21357377877	1
0	7299	2337.268788908552	2
0	7301	2337.358151588175	3
0	7307	2340.413740373168	4
0	7311	2341.162030684848	5
0	7313	2343.0254964429	6
0	7314	2343.18083246596	5
0	7320	2344.222939311773	6
0	7324	2345.975453843065	7
0	7328	2346.287443260802	8
0	7329	2348.106010336615	7
0	7334	2348.541303771636	6
0	7339	2348.690188660287	5
0	7348	2351.677035825282	6
0	7350	2351.796595264752	7
0	7355	2354.441064683937	8
0	7357	2356.60365087234	7
0	7362	2356.798307425039	6
0	7368	2357.242799879841	7
0	7375	2362.799565322634	6
0	7382	2364.48750771775	7
0	7383	2364.903243938841	6
0	7396	2368.537367989156	5
0	7406	2374.33273778363	4
0	7414	2374.687421171134	5
0	7418	2377.967353360433	4
0	7424	2380.655894178494	3
0	7430	2382.533260413141	4
0	7431	2382.681028601506	3
0	7438	2382.968935318333	4
0	7440	2383.041105018816	3
0	7445	2385.610510158237	2
0	7450	2386.514995287249	1
0	7455	2387.537155441262	0
0	7462	2389.944374057891	1
0	7466	2392.762427692967	0
0	7484	2398.075826090981	1
0	7485	2398.436997869852	0
0	7523	2411.885895488133	1
0	7525	2412.796014654758	2
0	7526	2414.689369316604	1
0	7531	2414.708993835588	0
0	7538	2416.028383659081	1
0	7539	2416.10406799462	0
0	7547	2418.725933758839	1
0	7548	2419.007644771462	0
0	7555	2419.381200821016	1
0	7557	2420.914400712867	0
0	7574	2429.468771253046	1
0	7576	2430.960895743621	2
0	7579	2436.482335558501	1
0	7590	2442.011205963788	2
0	7591	2442.511036826573	1
0	7602	2447.9349258257	0
0	7626	2454.620565190484	1
0	7629	2454.767512710103	0
0	7647	2463.017122644485	1
0	7648	2463.360589912138	0
0	7655	2464.999407777884	1
0	7656	2465.955112754736	0
0	7675	2470.457320989537	1
0	7679	2472.741171096639	2
0	7681	2472.816194872987	3
0	7683	2474.212051484722	4
0	7687	2475.199663085983	5
0	7688	2475.94944438308	4
0	7694	2477.13338280066	5
0	7697	2477.321785837001	6
0	7698	2477.743599972711	5
0	7703	2478.891729457385	4
0	7709	2479.443336459119	3
0	7715	2480.222170046067	4
0	7718	2481.980989097394	3
0	7728	2485.042469103934	4
0	7730	2485.392361860855	5
0	7733	2486.015113648775	6
0	7736	2487.054505533564	5
0	7742	2487.155093123496	6
0	7745	2488.20854644412	7
0	7746	2488.465658047661	6
0	7753	2488.806856949777	5
0	7758	2489.418056309607	4
0	7764	2491.879929611184	5
0	7768	2493.442213435607	4
0	7775	2493.788369408011	5
0	7777	2493.814910661858	6
0	7779	2494.38535878733	7
0	7781	2494.467549206963	8
0	7782	2495.049150292711	7
0	7789	2495.111394853727	6
0	7794	2495.613782797952	5
0	7799	2496.044195314874	4
0	7804	2496.75888921317	3
0	7810	2497.217092903922	4
0	7813	2499.914615336709	3
0	7819	2502.175486332482	2
0	7824	2502.783634114117	1
0	7835	2507.648984287986	0
0	7841	2509.172654166466	1
0	7846	2510.947152870558	2
0	7848	2512.014861396726	3
0	7853	2514.345780923322	4
0	7854	2515.186641652608	3
0	7861	2519.703606935706	4
0	7862	2522.430460647867	3
0	7869	2524.907012569002	4
0	7870	2525.908708118298	3
0	7876	2526.206187651265	4
0	7878	2526.497069837554	3
0	7883	2528.19409734527	2
0	7888	2528.203808507659	1
0	7893	2528.229322721286	0
0	7910	2531.271180579394	1
0	7911	2532.086274403768	0
0	7922	2534.532361789209	1
0	7923	2535.16036512343	0
0	7927	2535.309798514587	1
0	7934	2536.525418134819	2
0	7939	2540.282913700753	1
0	7949	2542.678814443542	0
0	7957	2542.963521757086	1
0	7959	2543.570595936372	2
0	7964	2547.983690373802	3
0	7966	2550.524786263871	2
0	7975	2551.482149253793	1
0	7982	2551.765665952032	0
0	7991	2553.616182478789	1
0	7993	2553.687319190091	2
0	7994	2556.114530136331	1
0	8000	2557.398361829221	2
0	8001	2557.638864441073	1
0	8006	2557.729464656519	0
0	8016	2559.088421125848	1
0	8018	2561.540536085211	0
0	8042	2567.281331513723	1
0	8046	2569.391246682714	0
0	8057	2570.955280794527	1
0	8060	2572.705116640862	0
0	8070	2574.984826183596	1
0	8073	2578.27487331256	0
0	8085	2579.807095840165	1
0	8086	2582.958199614452	0
0	8125	2595.873306345822	1
0	8128	2598.255956931287	0
0	8134	2598.480858627791	1
0	8136	2600.257834929674	0
0	8153	2605.29914909024	1
0	8155	2608.250071190739	2
0	8157	2610.097502792383	3
0	8159	2610.306972848715	4
0	8161	2611.891778741523	5
0	8162	2612.636691852248	4
0	8168	2612.691115587893	5
0	8170	2615.294915096118	6
0	8175	2617.462862896389	5
0	8182	2617.746838504282	6
0	8184	2618.0599292122	7
0	8186	2618.29647925221	8
0	8188	2618.870502317785	9
0	8189	2619.857656624255	8
0	8194	2619.943927648375	7
0	8200	2622.777759026011	6
0	8208	2628.845509039377	7
0	8209	2629.106207539507	6
0	8214	2629.875619852388	5
0	8221	2634.197212461038	4
0	8226	2634.729071508248	3
0	8232	2634.895547983314	4
0	8234	2635.821747134052	3
0	8239	2636.403160234238	2
0	8245	2638.64937424772	1
0	8252	2639.253258804551	0
0	8304	2650.630512300095	1
0	8305	2650.688164558199	0
0	8317	2652.695322986211	1
0	8320	2656.20237248642	0
0	8332	2658.036212148437	1
0	8335	2666.058590964217	0
0	8345	2672.188994822719	1
0	8347	2675.205477502302	2
0	8349	2676.479493337542	3
0	8356	2678.362112435917	2
0	8363	2679.88456245776	3
0	8365	2681.023661998141	2
0	8370	2681.580229823725	1
0	8377	2682.153995727023	0
0	8398	2685.813383959982	1
0	8400	2685.886157598369	2
0	8401	2688.209565397196	1
0	8406	2688.464726118812	0
0	8413	2690.749583629502	1
0	8416	2691.88940536961	2
0	8419	2694.557799080129	1
0	8426	2695.314073487407	2
0	8427	2695.675709845394	1
0	8434	2697.371076803851	2
0	8436	2699.13619448334	3
0	8437	2699.760888111561	2
0	8443	2700.339965631778	1
0	8448	2700.443525568737	0
0	8454	2701.07975802294	1
0	8456	2701.936543232	2
0	8458	2702.208298075852	3
0	8460	2703.095667309907	2
0	8468	2705.230109740831	1
0	8474	2706.024999387336	0
0	8512	2715.099231678072	1
0	8518	2722.986430150276	2
0	8519	2724.597978393964	1
0	8525	2727.359305975851	0
0	8540	2729.880901557619	1
0	8543	2730.011861714906	0
0	8555	2738.299797139471	1
0	8557	2739.118599838153	2
0	8558	2740.570751264975	1
0	8566	2742.091116582786	2
0	8568	2742.217192464503	3
0	8569	2743.932248636352	2
0	8574	2744.633319939426	1
0	8579	2745.245704022084	0
0	8591	2747.448908282623	1
0	8594	2749.443982453349	2
0	8596	2753.869181153993	1
0	8601	2754.63360206032	0
0	8657	2774.87281887434	1
0	8658	2775.096924399418	0
0	8685	2793.894547508237	1
0	8689	2795.36460006798	2
0	8692	2795.439616123456	1
0	8698	2795.452775227113	2
0	8700	2795.64603790582	3
0	8701	2796.06397486813	2
0	8712	2798.172896645998	1
0	8717	2798.208777783784	0
0	8757	2806.320826962112	1
0	8759	2806.868036536105	0
0	8780	2813.186584571846	1
0	8783	2816.131465639554	2
0	8784	2817.659574850918	1
0	8790	2818.324843141037	0
0	8825	2824.879564210896	1
0	8826	2825.762290498524	0
0	8832	2826.910943884415	1
0	8834	2827.04271236927	2
0	8836	2827.194041866329	3
0	8840	2830.278994572296	2
0	8847	2830.817738417647	3
0	8849	2832.011327751473	4
0	8851	2832.649517395392	5
0	8854	2833.184674014311	6
0	8860	2836.630107202097	7
0	8863	2840.113677800653	6
0	8869	2840.150062090649	7
0	8871	2840.611057621859	6
0	8878	2842.903646480775	5
0	8884	2843.121881744331	6
0	8890	2846.629698291418	5
0	8896	2846.835112325658	4
0	8902	2847.665316836724	3
0	8907	2848.336393971727	2
0	8913	2850.696011791648	1
0	8918	2851.267155717149	0
0	8929	2852.724490855419	1
0	8931	2853.732166693145	0
0	8969	2868.780650885485	1
0	8970	2869.278489183274	0
0	8977	2870.510756247021	1
0	8978	2870.656442560024	0
0	8987	2872.525420539445	1
0	8988	2872.972586736761	0
0	8997	2874.986351828028	1
0	9005	2879.426655868138	2
0	9007	2880.468951551343	3
0	9009	2880.598417499182	4
0	9013	2886.09673293096	3
0	9018	2886.234106916283	2
0	9024	2887.198909656777	1
0	9029	2887.801834285368	0
0	9053	2894.990206369134	1
0	9054	2895.454684383269	0
0	9061	2896.305504689134	1
0	9064	2899.478685384526	0
0	9073	2901.263360244351	1
0	9075	2901.893441879769	2
0	9079	2903.592227708716	1
0	9085	2903.857468043829	2
0	9086	2904.365098579433	1
0	9096	2907.740938194085	2
0	9097	2908.977785902632	1
0	9104	2910.949667542472	2
0	9105	2916.492264882976	1
0	9117	2919.982520641239	0
0	9129	2926.32509381608	1
0	9132	2927.805782230376	0
0	9141	2930.383629445631	1
0	9143	2935.026920576486	2
0	9146	2936.715147278538	1
0	9151	2937.194532469664	0
0	9198	2958.611318958573	1
0	9201	2967.99052265661	0
0	9213	2971.050399487628	1
0	9215	2971.359832569406	2
0	9216	2971.529866643558	1
0	9221	2971.605171043148	0
0	9247	2985.716124214986	1
0	9251	2988.752082034577	0
0	9259	2990.662738917643	1
0	9263	2995.043192105638	2
0	9266	2997.345123084492	1
0	9273	2998.426191766158	0
0	9292	3002.025089996819	1
0	9295	3003.22926684855	0
0	9309	3008.414285473099	1
0	9311	3009.228922089656	2
0	9315	3010.133229197519	3
0	9317	3010.179882412811	4
0	9319	3013.455100684767	3
0	9324	3013.7463636737	2
0	9329	3017.152487415436	1
0	9337	3019.233591953186	0
0	9360	3028.397257079641	1
0	9363	3029.603252914927	0
0	9378	3038.72232757894	1
0	9382	3038.770280910749	2
0	9383	3041.792199949478	1
0	9389	3043.074884010695	0
0	9396	3045.624770409951	1
0	9398	3046.205605682724	2
0	9399	3046.591038138089	1
0	9405	3046.966261154604	2
0	9406	3047.292488054721	1
0	9411	3048.084437789345	0
0	9417	3048.694345409586	1
0	9421	3051.907875245434	0
0	9429	3052.214485020989	1
0	9430	3052.604595514565	0
0	9437	3053.739414161772	1
0	9439	3057.36202009905	0
0	9448	3062.405783696254	1
0	9449	3063.063147955891	0
0	9475	3073.266781653975	1
0	9476	3073.293837952685	0
0	9487	3074.763504131272	1
0	9491	3078.23821840902	0
0	9497	3078.804421282678	1
0	9498	3079.228236793644	0
0	9511	3082.903870752015	1
0	9515	3085.216641701699	2
0	9517	3086.963935273463	1
0	9523	3087.232810177699	0
0	9529	3088.104851146455	1
0	9531	3088.879674727596	2
0	9533	3092.214010394993	1
0	9538	3092.722003781112	0
0	9545	3093.106429724101	1
0	9547	3096.692447411874	0
0	9555	3098.421062868372	1
0	9559	3101.998836656574	2
0	9560	3102.164726394011	1
0	9568	3106.110182022514	0
0	9591	3111.644715768021	1
0	9597	3113.559790455817	0
0	9611	3117.437499777152	1
0	9613	3118.853617672785	2
0	9614	3118.893966114773	1
0	9620	3119.229654760146	0
0	9638	3123.99721393104	1
0	9640	3127.286894128475	2
0	9641	3127.287698895583	1
0	9647	3127.663976433214	2
0	9652	3128.783912121635	1
0	9663	3129.804252369173	2
0	9665	3130.921771712323	3
0	9666	3131.031279074028	2
0	9671	3131.04832523917	1
0	9677	3131.263813634248	2
0	9681	3133.740639733327	1
0	9691	3138.599323720455	0
0	9705	3139.901303816739	1
0	9706	3141.092831226773	0
0	9735	3146.444577605653	1
0	9736	3151.186146676563	0
0	9743	3152.899293802498	1
0	9745	3154.266754699565	2
0	9746	3154.363655031529	1
0	9751	3154.56264571009	0
0	9763	3158.963854453032	1
0	9767	3160.970341151588	2
0	9768	3161.134719528877	1
0	9773	3161.714166971149	0
0	9785	3166.142159845849	1
0	9788	3170.837992262546	0
0	9808	3174.224317209816	1
0	9811	3176.778389272248	0
0	9823	3179.192014411216	1
0	9824	3180.53181181292	0
0	9836	3185.572827404655	1
0	9840	3187.182692157823	0
0	9846	3187.313076778137	1
0	9847	3187.761968349774	0
0	9853	3188.368329050295	1
0	9857	3190.328656296645	2
0	9858	3190.348927113832	1
0	9864	3191.975409281658	2
0	9867	3195.00093313829	3
0	9868	3195.809510146829	2
0	9876	3196.204264305702	1
0	9883	3198.04176341164	0
0	9896	3199.987242371756	1
0	9898	3200.405679196738	0
0	9926	3207.037998023211	1
0	9927	3207.350129894962	0
0	9942	3215.809104086782	1
0	9949	3221.777113732153	0
0	9956	3226.009009584674	1
0	9957	3226.946393456207	0
0	9963	3226.963193527894	1
0	9965	3228.653867200502	0
0	9985	3230.869048986153	1
0	9987	3232.902024964923	2
0	9989	3235.286993172928	3
0	9991	3235.325572316813	4
0	9995	3236.757837461897	5
0	9997	3236.921159096391	4
0	10004	3237.647998689919	3
0	10010	3240.256294350549	2
0	10015	3241.783523065328	1
0	10021	3243.371445490184	0
0	10039	3247.187594117235	1
0	10040	3247.818103304803	0
0	10049	3247.91879662516	1
0	10051	3248.182196102796	2
0	10060	3251.211977713859	1
0	10069	3252.403307331464	2
0	10073	3253.625751843284	1
0	10081	3256.320322080027	0
0	10096	3261.255416546397	1
0	10097	3262.299549921769	0
0	10137	3271.347273353758	1
0	10138	3275.016564120457	0
0	10159	3280.382277293932	1
0	10161	3283.60176901578	2
0	10168	3287.27873480559	1
0	10174	3288.513784600977	0
0	10195	3294.197534235335	1
0	10196	3297.068640968908	0
0	10204	3297.136796311115	1
0	10205	3297.786465057122	0
0	10227	3303.029636090418	1
0	10229	3303.381307243407	2
0	10231	3304.898251979679	3
0	10232	3304.980631692098	2
0	10237	3305.147898882663	1
0	10242	3305.358951837592	0
0	10272	3319.200009318424	1
0	10276	3324.251995808868	2
0	10277	3325.696558341053	1
0	10284	3326.829094452414	2
0	10286	3326.864416178406	3
0	10288	3327.673745860346	4
0	10289	3330.63268312197	3
0	10295	3331.38238807047	2
0	10300	3332.321835461713	1
0	10306	3334.644327250276	0
0	10313	3335.641087742715	1
0	10316	3337.1926754821	2
0	10317	3337.390989722536	1
0	10322	3337.405401104485	0
0	10338	3339.594160946099	1
0	10341	3340.684329626682	0
0	10350	3343.068075818356	1
0	10353	3344.742455028172	0
0	10359	3345.99490267756	1
0	10360	3346.037008778116	0
0	10385	3356.78057250156	1
0	10388	3358.304598773202	0
0	10417	3375.758744128999	1
0	10421	3379.311087895867	2
0	10423	3379.929644955913	3
0	10424	3381.827263867972	2
0	10429	3382.19938758772	1
0	10434	3382.306586490729	0
0	10440	3382.662936061341	1
0	10441	3382.748722744679	0
0	10455	3386.586244775933	1
0	10459	3388.932213761276	0
0	10466	3389.673446891517	1
0	10467	3390.048367784798	0
0	10475	3391.72065806598	1
0	10478	3392.995902584365	2
0	10480	3393.293483425231	3
0	10483	3394.83415274087	4
0	10485	3395.167305503794	3
0	10490	3395.887474416246	2
0	10499	3396.937536933464	3
0	10500	3397.4816581666	2
0	10508	3397.966471621114	3
0	10510	3399.205305893824	2
0	10515	3399.353189174853	1
0	10522	3401.195052377444	0
0	10538	3403.65553333641	1
0	10541	3404.860762924282	0
0	10555	3409.827954871269	1
0	10558	3412.712759924667	0
0	10567	3413.641162805772	1
0	10569	3416.341555781099	2
0	10572	3417.488988650715	1
0	10578	3417.828817248219	2
0	10580	3418.233866820046	3
0	10583	3418.717792266913	4
0	10584	3418.772460901999	3
0	10591	3421.520244330505	4
0	10595	3423.285620663666	5
0	10599	3424.484496124539	4
0	10606	3427.079003993672	5
0	10607	3427.856093636379	4
0	10613	3428.205818497817	5
0	10614	3428.378564408354	4
0	10620	3428.621129807749	5
0	10622	3428.626091409895	6
0	10623	3428.64585339528	5
0	10629	3429.778455021907	4
0	10638	3432.285957080956	3
0	10659	3439.694991329497	2
0	10665	3441.415275860451	1
0	10673	3443.034561276211	2
0	10675	3445.144953883401	3
0	10676	3446.526364258491	2
0	10681	3447.418462612743	1
0	10688	3448.494671192599	0
0	10695	3451.18976923995	1
0	10699	3451.596838142592	2
0	10701	3451.736519712119	3
0	10702	3452.076618855514	2
0	10707	3452.675976693905	1
0	10714	3453.258220775875	2
0	10716	3455.858597887515	1
0	10723	3456.381340455286	2
0	10724	3456.691538813605	1
0	10731	3459.249818162922	0
0	10737	3460.96376628046	1
0	10738	3461.179560330086	0
0	10744	3461.277228057235	1
0	10748	3471.704707518827	2
0	10750	3472.263178864006	3
0	10753	3476.391710370595	2
0	10761	3480.082167971703	1
0	10766	3480.297724770332	0
0	10798	3483.46920193397	1
0	10799	3487.000059428942	0
0	10813	3489.10842575233	1
0	10816	3490.506995288101	0
0	10822	3491.652052316629	1
0	10828	3494.429846438422	2
0	10830	3494.454558189146	3
0	10833	3494.837566125484	2
0	10840	3495.923451106367	3
0	10843	3496.678667425684	2
0	10850	3498.377684654482	3
0	10853	3500.824584095133	2
0	10860	3501.731787962686	3
0	10861	3502.27261672751	2
0	10874	3507.960130196779	3
0	10878	3509.829771104901	4
0	10880	3511.637836394388	5
0	10884	3515.690419060755	6
0	10885	3516.96942480419	5
0	10896	3526.669155779137	6
0	10898	3526.860440276633	7
0	10901	3529.446425473706	6
0	10911	3530.843181407238	7
0	10913	3531.386177050592	8
0	10915	3533.829910950299	9
0	10921	3536.567091556631	10
0	10923	3538.450464489699	11
0	10927	3539.535834112969	12
0	10930	3541.6243077753	11
0	10937	3543.056923623224	10
0	10943	3543.474970780087	11
0	10946	3544.878343099104	12
0	10948	3546.299321708662	11
0	10955	3547.07746369093	12
0	10958	3549.453433800398	11
0	10965	3553.054838440426	10
0	10972	3554.707942143114	11
0	10973	3556.160456388954	10
0	10978	3557.206024800225	9
0	10986	3559.263494424603	8
0	10993	3559.833845505268	9
0	10994	3561.135915504742	8
0	11000	3563.136398734948	7
0	11007	3564.596984585605	6
0	11013	3566.850230043466	5
0	11018	3567.013812328704	4
0	11025	3568.488608078993	3
0	11030	3569.003648932642	2
0	11038	3571.059232502445	3
0	11039	3571.17000938679	2
0	11044	3571.277815638264	1
0	11049	3571.567839400564	0
0	11075	3575.874191285208	1
0	11076	3576.154656959211	0
0	11106	3586.855524245273	1
0	11107	3587.340139595173	0
0	11122	3591.645362624177	1
0	11131	3596.310884184253	0
0	11152	3599.129017381786	1
0	11155	3601.669346424983	0
0	11180	3608.72132763742	1
0	11183	3609.761585921982	2
0	11184	3609.789143131995	1
0	11194	3612.456022467539	0
0	11201	3613.419691342984	1
0	11203	3615.179728167337	2
0	11204	3618.669361582534	1
0	11211	3619.393624896704	2
0	11213	3621.436079710452	3
0	11215	3623.000518986024	2
0	11221	3623.514289659196	3
0	11224	3626.437814987343	2
0	11232	3628.162058747912	1
0	11240	3630.354182598471	0
0	11248	3632.155937832391	1
0	11250	3633.064762471135	0
0	11268	3639.009585558724	1
0	11270	3640.077346794139	2
0	11272	3641.42057482568	3
0	11273	3645.0428484279	2
0	11279	3645.938330052055	1
0	11285	3646.811404162811	2
0	11287	3647.966674857021	1
0	11301	3654.301736361595	2
0	11304	3655.096274078028	1
0	11311	3658.781630731046	0
0	11333	3665.886832874003	1
0	11334	3668.532911469624	0
0	11341	3668.850727438992	1
0	11343	3669.910836062091	2
0	11347	3671.154054814836	3
0	11348	3673.370574229936	2
0	11354	3678.342090768615	1
0	11360	3679.54646866499	0
0	11374	3682.994365925566	1
0	11376	3683.147155064544	2
0	11377	3683.438332382716	1
0	11383	3684.463398533581	0
0	11389	3685.292581732226	1
0	11390	3685.332634935868	0
0	11396	3685.669461058777	1
0	11399	3685.894315354377	2
0	11402	3689.211398031534	1
0	11409	3690.837889755011	0
0	11436	3696.007865252572	1
0	11437	3698.095846131418	0
0	11451	3703.778954252535	1
0	11454	3707.015798358733	0
0	11473	3709.892412412721	1
0	11476	3716.312076133997	2
0	11480	3717.137036737165	3
0	11482	3717.146978260386	4
0	11484	3717.207412914049	5
0	11486	3717.323149844044	6
0	11487	3717.433092312817	5
0	11494	3720.080155849496	6
0	11496	3721.968755563448	5
0	11502	3723.20029303551	4
0	11509	3725.15843989258	5
0	11511	3727.401990068791	4
0	11519	3728.418394050301	5
0	11522	3729.867464548318	4
0	11527	3730.057440330779	3
0	11534	3731.805716669148	2
0	11539	3732.388562200179	1
0	11545	3733.513939553276	0
0	11564	3738.144168898604	1
0	11565	3738.189487959727	0
0	11577	3740.470651564499	1
0	11578	3740.756152770359	0
0	11594	3742.807699873918	1
0	11598	3743.233447538018	2
0	11599	3744.115161478568	1
0	11604	3744.295787611634	0
0	11641	3752.520521473129	1
0	11643	3752.588182570451	2
0	11647	3754.460538167474	3
0	11648	3756.387526285884	2
0	11655	3758.745193176199	1
0	11661	3760.13765369035	0
0	11672	3761.407399246542	1
0	11675	3764.465286843533	2
0	11678	3765.640906088178	1
0	11683	3766.815328778953	0
0	11702	3769.625721732086	1
0	11705	3772.016663216704	0
0	11728	3779.883293627784	1
0	11732	3787.864874471807	2
0	11733	3789.55752031384	1
0	11739	3791.924226030974	0
0	11746	3794.388567460373	1
0	11747	3794.537410403589	0
0	11756	3798.405034150333	1
0	11761	3802.736431288325	0
0	11769	3804.920120790614	1
0	11770	3807.514663820988	0
0	11783	3810.266611861811	1
0	11785	3810.652555590754	0
0	11792	3812.825262619613	1
0	11793	3813.473222293665	0
0	11818	3820.354706550359	1
0	11821	3822.499167487251	0
0	11831	3824.979335913165	1
0	11832	3825.547647539281	0
0	11843	3827.497070925285	1
0	11846	3829.853375179241	2
0	11847	3830.779451770906	1
0	11853	3834.221938971279	0
0	11877	3841.24323860644	1
0	11879	3841.392150536382	2
0	11880	3841.591024542519	1
0	11886	3844.952945027129	0
0	11898	3849.79247924905	1
0	11903	3851.733911323817	0
0	11912	3855.6824650884	1
0	11914	3858.006860387733	2
0	11916	3858.353363508054	3
0	11918	3860.279462353235	4
0	11923	3865.906036401897	3
0	11930	3869.353300651117	2
0	11936	3870.064064974487	1
0	11942	3871.684085104848	0
0	11951	3874.895932145935	1
0	11952	3875.081071871297	0
0	11974	3881.13361610289	1
0	11978	3882.616773585385	0
0	12004	3889.800392418946	1
0	12005	3889.878100537799	0
0	12020	3892.535215643466	1
0	12024	3893.268842065351	2
0	12026	3896.947186103337	3
0	12028	3897.01197491092	4
0	12030	3897.145303056914	5
0	12031	3897.45178043276	4
0	12040	3901.847616315906	3
0	12045	3902.100757101105	2
0	12050	3903.173843197378	1
0	12057	3904.474728990927	2
0	12058	3905.955341927637	1
0	12064	3906.828918489993	2
0	12066	3908.927535806987	3
0	12068	3909.340201686978	4
0	12073	3912.038240726438	5
0	12074	3912.556059227703	4
0	12083	3915.074591670307	5
0	12084	3916.347185114981	4
0	12089	3917.82075972457	3
0	12095	3918.334133956016	4
0	12099	3919.853580925806	3
0	12106	3921.189113724815	4
0	12107	3922.566377734815	3
0	12113	3922.94364482857	4
0	12116	3923.910740885382	5
0	12117	3926.315293921224	4
0	12125	3931.710584177678	3
0	12131	3931.983072788365	4
0	12134	3934.817329806823	3
0	12141	3936.577016296997	4
0	12142	3936.773701836102	3
0	12150	3937.159666031117	2
0	12160	3939.206805554242	3
0	12161	3940.099232136737	2
0	12169	3941.16019818189	3
0	12170	3941.526725076321	2
0	12175	3942.570894125143	1
0	12183	3944.679697522297	0
0	12189	3945.035204959548	1
0	12191	3945.215992721988	0
0	12202	3947.213674582364	1
0	12206	3952.578215324775	0
0	12216	3955.588626318105	1
0	12217	3959.722562284334	0
0	12229	3960.819121019292	1
0	12231	3961.096154487583	2
0	12232	3961.339174187057	1
0	12239	3962.016517214889	2
0	12241	3962.39557011736	3
0	12243	3963.095120620397	4
0	12247	3967.841495184891	5
0	12248	3968.089031006224	4
0	12253	3968.337992375579	3
0	12259	3969.346419598511	2
0	12264	3970.050682483756	1
0	12271	3970.174913859845	0
0	12285	3975.793263610873	1
0	12287	3978.478861094331	2
0	12291	3980.970402958021	3
0	12300	3984.359293247565	2
0	12309	3986.88210219979	3
0	12311	3988.310632411487	4
0	12313	3988.504983223425	5
0	12316	3988.716973660378	6
0	12320	3988.86671300514	7
0	12323	3990.306079169805	6
0	12329	3994.35925242181	5
0	12335	3997.138319383848	4
0	12341	3997.942988056623	5
0	12343	3998.505065988391	6
0	12345	3998.552504178383	7
0	12348	3998.924076669529	6
0	12353	3998.944231192767	5
0	12358	3998.970690764295	4
0	12364	3999.341359624154	5
0	12366	3999.781408770618	4
0	12372	3999.790364062283	5
0	12375	4001.978287746986	4
0	12380	4002.041012566801	3
0	12385	4002.051390571145	2
0	12392	4005.807788768286	1
0	12399	4006.832068103847	2
0	12400	4007.468884703265	1
0	12406	4007.612257351219	2
0	12410	4010.207343518234	1
0	12417	4012.89045783755	2
0	12418	4013.278157972717	1
0	12424	4013.623568701214	0
0	12433	4016.04772417387	1
0	12435	4017.155976304699	0
0	12441	4017.569384639906	1
0	12442	4018.749155947203	0
0	12448	4018.827139284818	1
0	12449	4019.583861827843	0
0	12461	4023.008031617153	1
0	12463	4023.237528567363	2
0	12464	4023.255726086916	1
0	12471	4024.604643626758	0
0	12486	4029.357373762043	1
0	12488	4032.283943785929	2
0	12489	4032.586039533932	1
0	12499	4035.96686498068	0
0	12535	4044.3531330624	1
0	12537	4045.102146165206	2
0	12538	4045.135326263217	1
0	12548	4045.777679625372	2
0	12549	4047.060935746121	1
0	12554	4047.088048539611	0
0	12638	4070.620741050179	1
0	12642	4074.163098785271	2
0	12643	4074.296752371157	1
0	12651	4076.329293411276	0
0	12657	4076.982013036343	1
0	12659	4077.192362080849	2
0	12662	4077.808907515227	3
0	12669	4081.285761899934	4
0	12670	4081.879125857782	3
0	12680	4088.881566590881	2
0	12686	4091.415248032386	1
0	12691	4091.854775256306	0
0	12705	4101.321679359174	1
0	12707	4103.989380410962	2
0	12708	4105.926835797047	1
0	12714	4106.070929151893	2
0	12718	4109.722632449641	1
0	12728	4113.353796483567	0
0	12741	4121.301258475377	1
0	12747	4127.533710815413	2
0	12748	4128.064374659681	1
0	12754	4129.497541590077	0
0	12766	4133.287168448929	1
0	12767	4133.784604206549	0
0	12780	4135.837580691654	1
0	12782	4139.684623291029	2
0	12783	4139.83945855445	1
0	12788	4140.91662144977	0
0	12799	4142.270415562228	1
0	12802	4143.8958601758	2
0	12805	4145.144309665893	3
0	12808	4146.641540018785	4
0	12810	4147.879347817046	5
0	12812	4148.277897405087	6
0	12813	4149.225025133287	5
0	12820	4153.065324894984	6
0	12822	4154.297822376869	7
0	12824	4155.973385289571	8
0	12825	4157.842662919756	7
0	12830	4158.168183874107	6
0	12837	4159.070553859978	5
0	12844	4160.257466373486	4
0	12853	4164.906261226268	5
0	12854	4166.002767619029	4
0	12861	4169.831070028581	3
0	12871	4172.521769929329	2
0	12877	4172.962088945551	3
0	12878	4173.49283534416	2
0	12884	4174.121199952824	1
0	12889	4174.188023848981	0
0	12900	4175.233392146481	1
0	12903	4176.90449901745	0
0	12930	4180.061652830723	1
0	12933	4182.614082555039	2
0	12937	4185.496862602795	1
0	12947	4190.124909321616	2
0	12948	4190.881184698799	1
0	12954	4191.979901464867	0
0	12991	4216.924867228673	1
0	12993	4216.9695304712	2
0	12994	4217.110976670767	1
0	12999	4218.186377857012	0
0	13043	4227.184246828313	1
0	13045	4230.403418381276	2
0	13049	4233.523294250839	3
0	13053	4235.011948153963	4
0	13054	4235.340155855409	3
0	13059	4235.955468686631	2
0	13064	4236.892360065907	1
0	13072	4237.67206743328	2
0	13073	4237.754579110835	1
0	13079	4238.144189010691	2
0	13081	4238.316799989337	3
0	13084	4238.997931568669	4
0	13087	4239.772835493342	3
0	13098	4244.950394970499	4
0	13101	4245.698217837464	3
0	13106	4247.288577689211	2
0	13112	4247.633621856555	3
0	13114	4248.477487266326	4
0	13117	4249.361741766937	5
0	13118	4251.146183582983	4
0	13123	4251.698197467547	3
0	13132	4256.782645280427	4
0	13133	4258.655394488312	3
0	13142	4261.558671710023	2
0	13148	4261.771383297005	3
0	13151	4263.14233122699	4
0	13155	4265.524812092966	5
0	13159	4266.932333257349	6
0	13162	4270.153307034035	5
0	13171	4273.778043528744	4
0	13176	4274.711569975169	3
0	13183	4275.796612238258	4
0	13186	4277.797557387231	5
0	13191	4282.0593466469	4
0	13196	4282.964599396735	3
0	13201	4283.530588961287	2
0	13209	4285.589310596654	1
0	13214	4285.618203370422	0
0	13225	4286.679557468434	1
0	13226	4288.07688984758	0
0	13238	4294.957067137558	1
0	13240	4295.373423544575	2
0	13241	4295.648947381084	1
0	13248	4297.226853664865	2
0	13250	4297.384796239852	3
0	13251	4297.788775559025	2
0	13256	4300.081023499353	1
0	13262	4300.357975413042	2
0	13264	4300.791604454078	1
0	13272	4301.604139699563	2
0	13274	4301.978941240213	3
0	13275	4302.369913899757	2
0	13282	4303.92256460817	3
0	13284	4305.37801310584	2
0	13289	4306.085671305109	1
0	13294	4307.002042475544	0
0	13301	4309.441343642765	1
0	13303	4310.3641537752	0
0	13329	4312.790901516786	1
0	13334	4313.741104451488	2
0	13336	4317.340405479109	1
0	13347	4322.925101502006	2
0	13349	4323.816742085951	3
0	13351	4328.063577664982	4
0	13352	4328.176994605347	3
0	13357	4329.124312965553	2
0	13362	4329.764704853629	1
0	13372	4331.645420149254	0
0	13384	4335.462841747339	1
0	13385	4336.683530491023	0
0	13407	4340.91645168269	1
0	13408	4341.50426520286	0
0	13425	4345.861216406199	1
0	13426	4346.122496609275	0
0	13435	4349.20196066359	1
0	13440	4350.665801812213	0
0	13458	4355.679192697462	1
0	13460	4358.569485304773	2
0	13467	4360.561080469898	1
0	13473	4362.493119033562	0
0	13484	4365.436194070307	1
0	13485	4366.91664316966	0
0	13492	4370.282558722969	1
0	13495	4374.987512529177	0
0	13506	4377.657303682352	1
0	13509	4377.816353352574	2
0	13511	4377.891812695083	1
0	13516	4378.796920258871	0
0	13545	4384.98970392368	1
0	13547	4386.021592213993	2
0	13549	4389.00623264137	3
0	13553	4393.019756522801	4
0	13554	4394.738615028289	3
0	13560	4394.754833751869	4
0	13563	4395.49723875743	3
0	13568	4395.740000394171	2
0	13575	4396.930114965605	3
0	13579	4398.099149811067	2
0	13586	4399.138761904715	3
0	13587	4399.173771851004	2
0	13592	4399.239947459368	1
0	13597	4399.244095451008	0
0	13621	4404.84360828174	1
0	13622	4405.321001936183	0
0	13629	4405.704815359439	1
0	13630	4408.064823465111	0
0	13636	4408.091822515837	1
0	13637	4408.2172780802	0
0	13654	4410.499854356804	1
0	13657	4412.803114038877	2
0	13658	4413.557619493474	1
0	13665	4414.308536833829	2
0	13668	4415.626865465822	1
0	13674	4416.07055228853	2
0	13676	4416.424068336495	3
0	13677	4416.704790923363	2
0	13682	4416.812176210355	1
0	13689	4419.82072507701	2
0	13690	4419.909503859322	1
0	13695	4420.32256532085	0
0	13718	4432.320289061298	1
0	13719	4432.400122660939	0
0	13731	4435.670051167545	1
0	13733	4435.938402591871	2
0	13735	4436.103899609785	1
0	13744	4438.251378242738	2
0	13745	4438.869885872731	1
0	13751	4439.72949083415	0
0	13768	4444.543628601156	1
0	13770	4445.365911461305	2
0	13771	4446.735745467839	1
0	13777	4446.769806854114	2
0	13780	4448.714093316664	1
0	13785	4449.14114609318	0
0	13799	4450.24494654084	1
0	13803	4453.495865583952	0
0	13809	4454.025751302458	1
0	13810	4454.281267917375	0
0	13816	4454.312090344575	1
0	13820	4454.854691242069	2
0	13824	4456.250645061717	3
0	13827	4457.008336389421	4
0	13829	4457.014141025115	5
0	13830	4458.08145120048	4
0	13842	4463.935684364852	5
0	13844	4464.447033019286	6
0	13845	4464.993665639463	5
0	13855	4467.473428941289	4
0	13861	4467.789756685693	3
0	13870	4470.371697184233	4
0	13871	4474.165426111857	3
0	13877	4475.350769843294	2
0	13882	4476.382046972434	1
0	13887	4477.710089061475	0
0	13893	4478.082812407713	1
0	13895	4478.807937793821	0
0	13901	4478.863127556051	1
0	13903	4478.966819716045	2
0	13907	4480.389716703881	3
0	13910	4483.142006110417	4
0	13915	4485.059197727191	3
0	13922	4485.504467488214	4
0	13925	4489.385346874094	3
0	13930	4491.363610748537	2
0	13936	4492.912211344975	3
0	13937	4493.654350666491	2
0	13943	4494.490739725146	3
0	13944	4494.791863951347	2
0	13950	4494.848802050443	3
0	13951	4494.865656702624	2
0	13957	4496.008485778889	1
0	13962	4496.453627993207	0
0	13990	4508.379091842462	1
0	13992	4509.207764003989	2
0	13993	4509.665082965818	1
0	13999	4517.026944162261	0
0	14005	4517.446518562201	1
0	14007	4517.59626685031	2
0	14008	4518.260402920825	1
0	14014	4518.374883612973	0
0	14027	4519.803106999259	1
0	14030	4520.303193024533	2
0	14032	4520.444971257558	3
0	14033	4521.691516833706	2
0	14038	4521.800587947101	1
0	14045	4522.218981215175	2
0	14048	4523.595793901202	3
0	14049	4523.971434779307	2
0	14055	4525.188533779342	1
0	14060	4525.397245004015	0
0	14072	4527.690877181993	1
0	14076	4532.020195885086	2
0	14078	4532.74791292698	3
0	14079	4532.993455884093	2
0	14091	4534.94999460512	1
0	14099	4536.009362190074	0
0	14118	4539.302625700962	1
0	14121	4540.696337142451	0
0	14138	4542.928251762335	1
0	14140	4544.250077784919	2
0	14142	4544.707951740158	3
0	14144	4544.925558716462	4
0	14145	4545.055632373688	3
0	14151	4545.136630093031	4
0	14154	4546.626630656777	5
0	14157	4548.837698697354	4
0	14165	4554.033347679045	3
0	14172	4556.425679572437	4
0	14173	4556.766972383258	3
0	14178	4556.777615277471	2
0	14184	4557.197257271749	1
0	14189	4557.205827063439	0
0	14219	4562.199541734937	1
0	14222	4563.542119357841	0
0	14237	4568.39660403308	1
0	14242	4573.179882221808	0
0	14255	4576.711960141629	1
0	14260	4583.600779103376	2
0	14264	4584.365782800844	3
0	14265	4589.695078230892	2
0	14270	4590.295013095307	1
0	14279	4591.982161552187	2
0	14280	4592.327222143141	1
0	14287	4596.090834513872	0
0	14294	4596.52898130123	1
0	14296	4597.117774256595	0
0	14324	4603.401734865419	1
0	14325	4603.803144848535	0
0	14331	4605.519585534817	1
0	14333	4605.625081365647	2
0	14335	4605.973189480986	3
0	14337	4606.838038922379	2
0	14345	4610.043401741265	1
0	14351	4610.519505239654	2
0	14352	4611.666504651355	1
0	14358	4612.911584430388	0
0	14373	4615.912502033516	1
0	14375	4617.601678125911	2
0	14376	4620.337725432979	1
0	14381	4620.421297587499	0
0	14419	4633.215994008877	1
0	14420	4633.475891624745	0
0	14429	4633.954604832608	1
0	14432	4634.885032015212	0
0	14438	4634.932125558548	1
0	14440	4636.532642127131	2
0	14442	4636.989417932389	1
0	14452	4638.188547891934	2
0	14454	4639.021398255143	1
0	14466	4644.324078449185	2
0	14467	4644.348556535228	1
0	14473	4649.310242220056	0
0	14500	4654.29814522601	1
0	14502	4655.328230173773	2
0	14503	4658.716815773983	1
0	14509	4659.2630093187	0
0	14518	4660.100616037396	1
0	14521	4661.103218287799	0
0	14527	4663.574682593659	1
0	14529	4665.698596773632	2
0	14531	4665.929511664784	1
0	14539	4666.549847072864	2
0	14541	4667.431244188674	3
0	14542	4667.829394932053	2
0	14548	4668.106977171884	3
0	14550	4670.971364030192	2
0	14560	4673.984539676395	1
0	14565	4674.501412350163	0
0	14579	4676.819500047645	1
0	14586	4679.286516393997	2
0	14588	4680.050164119886	1
0	14594	4680.262419744084	2
0	14597	4681.108815514202	1
0	14605	4684.4031285488	0
0	14626	4686.065826033932	1
0	14631	4688.456505604081	0
0	14637	4688.962053018929	1
0	14642	4690.827082821617	2
0	14645	4693.911964278968	3
0	14647	4694.246786633557	4
0	14648	4695.811385175983	3
0	14654	4697.107832757698	4
0	14659	4700.237752153689	3
0	14665	4701.495073492484	2
0	14670	4701.668934785348	1
0	14675	4701.929496896536	0
0	14698	4704.570011049795	1
0	14700	4707.138556730946	0
0	14730	4715.008058131894	1
0	14731	4715.816965856946	0
0	14741	4717.387300436395	1
0	14742	4718.40547498436	0
0	14757	4721.348829122918	1
0	14762	4721.905998813424	2
0	14764	4722.080308682415	3
0	14765	4722.462589084733	2
0	14771	4723.967958942257	1
0	14777	4724.222211612464	2
0	14778	4724.376119012623	1
0	14786	4726.317565893897	2
0	14787	4727.523110505999	1
0	14794	4729.459866277938	2
0	14795	4734.931369125954	1
0	14800	4734.940618038613	0
0	14824	4744.367154283589	1
0	14829	4745.122551620122	0
0	14858	4752.617486872164	1
0	14859	4755.656483696035	0
0	14873	4759.642680518365	1
0	14875	4760.306734149909	2
0	14876	4761.75129239041	1
0	14884	4762.201007018582	2
0	14886	4762.572069486912	3
0	14887	4762.674620084221	2
0	14892	4763.895325140767	1
0	14900	4766.566448528569	0
0	14907	4767.505643145647	1
0	14908	4767.798366856886	0
0	14917	4769.745684008631	1
0	14920	4770.56007259123	0
0	14926	4771.370861974866	1
0	14930	4771.944552509912	0
0	14948	4777.062916586207	1
0	14950	4777.203423124003	2
0	14952	4778.175213369878	1
0	14959	4784.697126011986	0
0	14983	4788.829451900857	1
0	14984	4789.716952838673	0
0	15003	4795.525458472572	1
0	15005	4797.973657151904	2
0	15007	4800.257046578856	3
0	15010	4803.476513375396	2
0	15015	4803.668614122242	1
0	15021	4805.1422979538	2
0	15023	4805.253635360933	3
0	15024	4806.646354741096	2
0	15030	4809.403466529018	3
0	15031	4809.886808616304	2
0	15038	4810.573318424223	3
0	15039	4811.050684567807	2
0	15047	4812.592184357588	1
0	15052	4813.156845570851	0
0	15074	4819.351630508896	1
0	15080	4821.665450129147	2
0	15081	4824.72657375497	1
0	15087	4825.415531198552	0
0	15107	4835.20643936783	1
0	15110	4836.012801355242	0
0	15122	4839.199234908082	1
0	15123	4839.862949674356	0
0	15130	4842.21691514607	1
0	15133	4844.133762853634	0
0	15155	4854.451503912035	1
0	15162	4862.143723705256	0
0	15168	4862.184931009736	1
0	15169	4862.81859179992	0
0	15175	4862.961124217376	1
0	15177	4863.111183773498	2
0	15180	4865.033268945888	1
0	15185	4866.136956180238	0
0	15199	4870.320304532	1
0	15200	4871.449119561894	0
0	15211	4874.406774698797	1
0	15212	4874.609906244294	0
0	15222	4877.081624726019	1
0	15224	4877.943826852957	0
0	15241	4882.540633605927	1
0	15242	4882.671266580728	0
0	15262	4893.385539418028	1
0	15263	4895.798078317031	0
0	15280	4898.536240027536	1
0	15283	4899.458583837014	0
0	15291	4900.061128764169	1
0	15296	4901.236591415594	2
0	15299	4902.366212423851	1
0	15307	4908.524793470903	0
0	15314	4908.818528328356	1
0	15315	4909.758838174081	0
0	15328	4911.329955106683	1
0	15329	4911.949905147012	0
0	15340	4912.939818248188	1
0	15344	4914.243968815178	2
0	15347	4915.928018899555	1
0	15352	4916.113011367319	0
0	15369	4918.024765821402	1
0	15373	4921.437204409258	2
0	15375	4924.21343388241	3
0	15378	4924.807098284299	4
0	15380	4926.106050447301	5
0	15382	4926.125419055474	6
0	15384	4929.049898387738	5
0	15389	4929.57287446898	4
0	15397	4930.510782947943	5
0	15400	4930.934795781949	4
0	15408	4934.057680771431	3
0	15415	4935.512215137265	4
0	15416	4935.581138640246	3
0	15424	4936.994466775879	2
0	15429	4937.351704100261	1
0	15435	4937.380658567824	2
0	15436	4937.858306659855	1
0	15441	4938.244412167664	0
0	15447	4938.327000882568	1
0	15449	4939.384252042784	2
0	15453	4940.863230575947	1
0	15459	4941.84747838687	0
0	15465	4941.891001599759	1
0	15467	4941.980717902817	0
0	15481	4945.514979040614	1
0	15483	4945.970465180316	2
0	15484	4946.164977296094	1
0	15489	4946.558504599543	0
0	15508	4955.394985586968	1
0	15509	4956.584282358446	0
0	15520	4961.249515609758	1
0	15521	4961.442877071001	0
0	15539	4967.226597314149	1
0	15543	4969.017367434959	2
0	15544	4969.930362322191	1
0	15555	4973.334823227847	2
0	15557	4974.625042018113	3
0	15559	4975.563033603839	4
0	15561	4978.123188621722	5
0	15564	4979.05965397839	4
0	15570	4979.231878031033	5
0	15571	4980.178980308808	4
0	15577	4981.251464225603	5
0	15580	4983.085876239958	4
0	15587	4983.318082477703	5
0	15589	4984.284962835472	6
0	15591	4987.209601601635	5
0	15597	4987.984007621424	4
0	15603	4988.085315369319	5
0	15607	4989.378965424551	4
0	15614	4991.959915675687	3
0	15619	4992.219074700183	2
0	15626	4993.155271982426	1
0	15635	4994.267699848124	2
0	15636	4996.939920495112	1
0	15642	4997.116739566189	2
0	15646	4997.835365507015	3
0	15651	4998.61578738247	4
0	15656	5004.650445334953	3
0	15661	5004.75483392895	2
0	15666	5006.142646634923	1
0	15674	5007.144451309477	2
0	15678	5008.093867517533	1
0	15685	5011.04225389019	2
0	15686	5011.283304865301	1
0	15691	5011.943723410593	0
0	15697	5012.616419815139	1
0	15699	5014.344152615772	0
0	15722	5022.164657320022	1
0	15723	5023.04609985775	0
0	15732	5024.100691307206	1
0	15734	5024.139788622283	2
0	15736	5025.049178523967	3
0	15738	5029.011941909946	4
0	15741	5031.432002436425	3
0	15746	5034.294041611997	2
0	15751	5034.968577025604	1
0	15760	5037.679338524399	0
0	15792	5045.54406253475	1
0	15796	5046.437290083318	2
0	15797	5046.541076667174	1
0	15805	5048.065767693735	2
0	15806	5048.440346767865	1
0	15812	5049.943321876009	0
0	15837	5059.410584250968	1
0	15838	5059.725636610204	0
0	15846	5060.379738208041	1
0	15847	5061.333894422581	0
0	15869	5067.174022912894	1
0	15871	5067.618489356058	2
0	15872	5070.540386631884	1
0	15878	5071.257115697537	0
0	15886	5072.799956004407	1
0	15887	5073.947070330128	0
0	15893	5074.395571220679	1
0	15895	5074.815315508785	2
0	15899	5075.87006510354	3
0	15907	5079.817383911285	4
0	15908	5079.922866170737	3
0	15914	5080.624194721952	2
0	15919	5083.585989181281	1
0	15925	5086.549254161773	0
0	15931	5086.686240686878	1
0	15933	5086.858747785323	2
0	15937	5089.299424069632	1
0	15943	5089.464173171141	2
0	15945	5089.852186778031	3
0	15946	5090.636274323369	2
0	15952	5094.739135339637	3
0	15956	5096.690868156155	4
0	15957	5096.695753568054	3
0	15963	5099.442572471557	2
0	15972	5102.417522503466	1
0	15981	5104.844944405376	0
0	15992	5111.723491114866	1
0	16002	5118.083837339285	2
0	16003	5118.170526080491	1
0	16011	5119.332877728364	2
0	16014	5121.829434047976	1
0	16020	5122.75925775355	2
0	16023	5124.171486256925	1
0	16032	5127.927142044562	0
0	16050	5130.106558046259	1
0	16051	5134.563249743786	0
0	16078	5141.34806071775	1
0	16081	5143.001191688923	0
0	16093	5143.78345147262	1
0	16094	5145.456756579522	0
0	16104	5146.202662726376	1
0	16108	5150.034045226486	0
0	16119	5150.107309857868	1
0	16126	5153.573453833905	2
0	16129	5160.004803296043	1
0	16135	5160.124940367743	2
0	16136	5160.823769596335	1
0	16141	5161.033573936099	0
0	16170	5174.454936956711	1
0	16173	5177.107145174107	0
0	16179	5178.382343228266	1
0	16180	5178.732270570357	0
0	16204	5190.369240547158	1
0	16206	5190.508806391909	2
0	16207	5190.632386234047	1
0	16212	5190.856085988329	0
0	16219	5192.110535403845	1
0	16221	5194.351719219382	2
0	16226	5207.740770476536	1
0	16235	5211.968936653203	2
0	16236	5215.166527679111	1
0	16241	5216.17632327084	0
0	16264	5223.551459310426	1
0	16265	5225.579887625425	0
0	16277	5227.712570425049	1
0	16278	5229.28799874618	0
0	16284	5229.303147061894	1
0	16287	5230.416479434541	2
0	16288	5230.811248768435	1
0	16300	5232.879821810828	2
0	16304	5235.826493184722	3
0	16305	5237.842931021435	2
0	16310	5237.842986750544	1
0	16316	5238.261047498471	2
0	16318	5240.140492003468	1
0	16323	5240.935855268826	0
0	16331	5241.92049091209	1
0	16333	5242.827093318233	0
0	16356	5251.846160643399	1
0	16359	5252.616107465663	0
0	16366	5252.829369953697	1
0	16367	5253.518935090844	0
0	16374	5256.683567288791	1
0	16377	5257.672899751082	0
0	16384	5257.856031792725	1
0	16386	5257.985963423329	2
0	16387	5259.653696791033	1
0	16393	5259.714250324913	2
0	16396	5262.225863810661	1
0	16401	5262.86822712949	0
0	16426	5273.163038528276	1
0	16427	5274.235928387885	0
0	16449	5278.638769803592	1
0	16451	5279.004900216273	2
0	16452	5279.573505872702	1
0	16458	5279.896792940985	2
0	16460	5281.964088446926	1
0	16469	5282.875424474132	2
0	16470	5283.711794469674	1
0	16477	5287.929115309763	2
0	16478	5288.302807301034	1
0	16485	5289.382903020381	2
0	16486	5290.647405351631	1
0	16494	5293.003464441584	0
0	16500	5293.525275855479	1
0	16501	5294.617163184621	0
0	16522	5300.130689773212	1
0	16523	5300.200289310137	0
0	16529	5300.57803091931	1
0	16531	5301.515511408903	0
0	16537	5301.990435986123	1
0	16538	5302.47864539305	0
0	16558	5310.176306021816	1
0	16559	5311.108668575203	0
0	16565	5311.844796530341	1
0	16566	5311.855222748883	0
0	16572	5311.942387818581	1
0	16574	5312.252879803366	0
0	16581	5313.371316830681	1
0	16585	5315.377422577177	0
0	16606	5320.587669860372	1
0	16610	5323.007099686419	0
0	16622	5326.948047613452	1
0	16623	5328.040422517281	0
0	16640	5334.642709578664	1
0	16644	5335.918264660623	2
0	16647	5337.455622044653	3
0	16648	5338.020743139924	2
0	16653	5338.094006117657	1
0	16658	5338.388073459245	0
0	16671	5341.724778335612	1
0	16673	5343.233095554173	2
0	16680	5346.231084374515	3
0	16682	5346.95196984626	4
0	16685	5349.688714022057	3
0	16690	5350.051440059327	2
0	16698	5352.383620968149	1
0	16703	5353.418371746983	0
0	16709	5354.357513022419	1
0	16719	5367.109910630943	2
0	16720	5370.169054843852	1
0	16726	5371.148050023906	2
0	16727	5371.536368628233	1
0	16734	5371.806680855216	2
0	16738	5375.483119141646	1
0	16743	5375.809431748195	0
0	16769	5380.588088833251	1
0	16770	5381.571672710992	0
0	16781	5383.847021666503	1
0	16785	5388.5910850561	0
0	16799	5391.831154400513	1
0	16801	5392.203356482287	2
0	16802	5392.818875924312	1
0	16812	5393.83363190319	2
0	16814	5393.985152005518	1
0	16820	5394.469569767246	2
0	16822	5394.581395291007	3
0	16825	5394.930994118383	2
0	16833	5397.995155451347	1
0	16839	5398.990678721992	2
0	16842	5399.797224053472	1
0	16849	5402.821976381953	0
0	16875	5406.991151959381	1
0	16876	5408.625807988104	0
0	16889	5412.726753797779	1
0	16890	5412.809176271055	0
0	16911	5421.767520580855	1
0	16913	5422.486793423809	2
0	16915	5423.081728078404	3
0	16916	5426.248582216886	2
0	16924	5428.600668537673	1
0	16929	5428.755393452958	0
0	16954	5436.367437169863	1
0	16955	5437.37165822182	0
0	16964	5439.745350928662	1
0	16974	5443.78353069921	0
0	16983	5444.146758939411	1
0	16987	5445.761976023337	2
0	16991	5449.073540275015	1
0	16996	5449.293494183071	0
0	17003	5450.352570767908	1
0	17005	5451.752695867119	2
0	17006	5452.35125131067	1
0	17014	5459.060755454033	0
0	17042	5465.834375118675	1
0	17043	5466.229557377709	0
0	17051	5466.2521771964	1
0	17052	5466.696092335563	0
0	17058	5466.761486271439	1
0	17061	5468.609706200864	0
0	17090	5477.759259599375	1
0	17091	5478.554993492461	0
0	17126	5488.853926868644	1
0	17129	5490.91025317598	0
0	17136	5491.581134295043	1
0	17139	5492.462252283356	2
0	17140	5493.077311081584	1
0	17145	5494.774170812491	0
0	17172	5502.201576771553	1
0	17173	5502.255477714472	0
0	17184	5503.597940728769	1
0	17186	5505.197993532926	2
0	17190	5506.939808456503	3
0	17193	5509.267179552642	2
0	17202	5510.759778208851	3
0	17205	5511.135996989726	2
0	17211	5511.665888107139	1
0	17216	5513.2850788995	0
0	17231	5516.831938997613	1
0	17232	5517.616218556997	0
0	17246	5523.140110252665	1
0	17247	5523.363341708383	0
0	17256	5524.521697960914	1
0	17261	5525.342430781496	2
0	17262	5527.3545997896	1
0	17268	5527.628815262377	2
0	17270	5528.148909178501	3
0	17271	5528.204648731629	2
0	17277	5529.769191285486	1
0	17284	5531.410904289171	0
0	17298	5535.989870149933	1
0	17299	5536.988455544351	0
0	17321	5552.034463635046	1
0	17323	5552.259814689673	2
0	17328	5556.129214387445	1
0	17334	5556.536185398685	0
0	17375	5568.34772245816	1
0	17377	5568.52728695155	2
0	17379	5569.20810788904	3
0	17381	5570.985625919731	4
0	17383	5571.979721994285	5
0	17384	5572.339523205808	4
0	17390	5572.624644058044	5
0	17392	5573.043006615912	6
0	17394	5576.098668679467	5
0	17400	5576.486211737138	6
0	17403	5577.73816320127	7
0	17404	5578.22636696888	6
0	17410	5580.332052173986	7
0	17412	5580.755459086837	8
0	17413	5581.624209619377	7
0	17420	5583.02372980248	6
0	17430	5586.495870733351	5
0	17436	5587.703262076819	6
0	17440	5591.238400418654	7
0	17441	5591.256408833535	6
0	17447	5591.813025821874	7
0	17449	5592.702375424677	8
0	17455	5593.79242542106	9
0	17456	5594.874637186395	8
0	17462	5595.55768536437	9
0	17464	5595.697843180893	10
0	17465	5596.051240934144	9
0	17472	5596.700465201279	8
0	17481	5598.16969702193	9
0	17483	5598.234708005257	10
0	17487	5599.823824158183	11
0	17488	5600.62580187873	10
0	17495	5601.898024668493	9
0	17510	5606.604603937294	10
0	17512	5609.298658851712	11
0	17513	5615.225399915198	10
0	17521	5620.953871861457	9
0	17527	5622.681535199457	8
0	17534	5623.964261558606	9
0	17536	5624.247412269992	10
0	17537	5626.792672469214	9
0	17542	5627.018680486907	8
0	17547	5629.63635190983	7
0	17557	5633.873112863057	6
0	17563	5634.852012029094	7
0	17569	5636.627519628	6
0	17574	5637.025249702896	5
0	17580	5638.078906357425	6
0	17583	5641.136774658356	5
0	17592	5644.591720037977	6
0	17595	5647.254484933239	5
0	17601	5647.636328589673	6
0	17604	5651.012996536553	5
0	17612	5652.232220231738	4
0	17617	5653.133170674224	3
0	17623	5653.162161301844	4
0	17624	5653.168092264197	3
0	17632	5655.212998747408	4
0	17633	5655.530830298004	3
0	17641	5658.278709922223	2
0	17649	5664.947711294905	1
0	17658	5670.483253630935	0
0	17668	5671.237436129785	1
0	17671	5672.169986332157	0
0	17677	5672.572212258094	1
0	17680	5675.12584213633	0
0	17720	5682.937775028555	1
0	17721	5683.418503445294	0
0	17738	5686.863004388667	1
0	17739	5687.560895651515	0
0	17751	5689.480912449917	1
0	17755	5691.542773302083	2
0	17756	5691.571304820007	1
0	17764	5695.821757631946	0
0	17777	5698.361765413526	1
0	17781	5699.645455303736	2
0	17785	5701.377715592629	3
0	17790	5702.336506478969	2
0	17797	5705.057214296809	1
0	17803	5706.724728350456	0
0	17814	5709.966053668051	1
0	17815	5711.098654020157	0
0	17871	5732.106645855111	1
0	17877	5739.097494858529	2
0	17880	5742.941180183382	1
0	17887	5745.146468230524	2
0	17888	5745.565267003814	1
0	17893	5745.835533997474	0
0	17910	5751.908885378666	1
0	17912	5752.643934240164	0
0	17934	5758.528271296503	1
0	17936	5758.58330678959	2
0	17943	5759.789940455557	1
0	17948	5759.852448308231	0
0	17970	5761.034914881563	1
0	17973	5761.489002394912	2
0	17975	5761.661910518249	3
0	17976	5763.030081921754	2
0	17984	5765.418517211448	3
0	17986	5765.941458822138	4
0	17989	5774.082996489045	3
0	17995	5774.695053644628	4
0	17997	5774.983651810609	3
0	18003	5775.514273965928	2
0	18009	5776.461566866833	3
0	18010	5776.526645620861	2
0	18017	5777.433889025848	3
0	18019	5779.232561428452	4
0	18021	5779.458909888932	5
0	18025	5780.392277636124	6
0	18027	5780.540200438936	7
0	18031	5782.638647332639	6
0	18036	5783.362800826498	5
0	18048	5786.935486488567	4
0	18053	5787.22798542965	3
0	18058	5787.386104669685	2
0	18065	5787.731891912814	3
0	18068	5789.601963718926	2
0	18074	5789.662803449417	3
0	18076	5790.082853910564	4
0	18077	5790.335760967426	3
0	18082	5790.473167379067	2
0	18087	5790.632144860921	1
0	18091	5792.018300095552	2
0	18097	5795.037317681269	3
0	18104	5799.203366040361	2
0	18111	5799.441297841484	1
0	18117	5801.454117166513	2
0	18119	5802.313357947055	3
0	18121	5805.38440524834	4
0	18123	5807.057235208293	5
0	18126	5808.299126195923	4
0	18131	5808.917872684192	3
0	18136	5808.940385980822	2
[...]
5	86804	28122.995110603142	1.293565754337
5	86835	28133.682000822344	8.791678349549
5	86841	28134.213822713613	7.188759741667
5	86846	28134.569226919774	7.296179149236
5	86863	28139.663119473317	4.800085957161
5	86872	28142.441974621798	4.508410775301
5	86879	28144.183540790386	5.452300327269
5	86886	28147.194672342025	4.179618955242
5	86892	28147.923652681235	0.995253294611
5	86911	28152.126363854032	3.572764004989
5	86919	28157.175208185336	5.395183287152
5	86924	28157.446367502804	2.515155363668
5	86945	28161.73784363109	1.089527512583
5	86967	28169.37592636525	4.829158653146
5	86974	28171.227048595478	4.206464083717
5	86979	28173.505042467671	5.329421777121
5	87015	28183.893997828103	9.230787955321
5	87022	28186.856255933597	10.854218705097
5	87031	28189.567152205122	12.61337644661
5	87038	28191.254466396402	11.514058271582
5	87045	28192.045183936296	11.269896318694
5	87052	28195.571294850524	12.066084346688
5	87057	28196.61244721992	8.679123646249
5	87066	28198.796245435266	7.641401142692
5	87076	28200.556772841441	9.290982005419
5	87081	28200.972193503097	3.63175118791
5	87093	28202.999228922154	3.256636561453
5	87098	28203.087256840854	2.863490312051
5	87108	28208.362724545883	7.058013949866
5	87124	28217.387330237342	15.4580341583
5	87132	28218.858130991056	11.049339280322
5	87137	28221.236303647362	7.207515924468
5	87171	28236.786740016093	6.842830015927
5	87176	28237.632324239289	3.451337270722
5	87227	28261.497108780982	10.35878014862
5	87233	28263.014720341525	7.825603299798
5	87259	28278.756677427761	23.198300548761
5	87266	28285.534842712797	26.319563243556
5	87273	28287.328346097292	16.593536775696
5	87284	28291.136647845624	13.106602916635
5	87295	28295.397287688246	17.08356427208
5	87309	28297.194088829726	12.641032047826
5	87324	28304.44747451069	17.307033723644
5	87331	28305.965408898977	18.482626481613
5	87338	28306.466550235607	11.061835787115
5	87344	28306.929572273074	9.901757876131
5	87350	28307.584683241792	9.250986742644
5	87357	28309.40845099375	9.518492902915
5	87363	28311.612835970007	9.513644227689
5	87368	28311.88996835051	8.591666770133
5	87378	28316.411359367227	10.51534233137
5	87383	28318.704229229542	4.546432379832
5	87425	28331.334996211455	7.104772519144
5	87431	28333.98398416519	7.717888519937
5	87443	28339.844950994517	10.534512908553
5	87456	28344.036513688521	4.049505969781
5	87477	28349.006950301237	2.18783705647
5	87486	28354.458489280178	7.412815947615
5	87491	28355.833327517575	5.14517876276
5	87506	28358.371864295949	7.235747825108
5	87514	28361.977870594451	4.147085287499
5	87519	28362.350521630189	4.232324039262
5	87556	28373.685435825885	5.890952977276
5	87569	28377.23905927281	4.011404609029
5	87579	28378.094137457399	4.486369580408
5	87588	28380.041233473099	6.187296044849
5	87596	28382.253593742829	4.569863405974
5	87603	28383.816802713313	6.131530842108
5	87618	28388.503438255864	9.984979979549
5	87623	28389.465984956118	9.189908968494
5	87630	28391.961522045239	5.560667930563
5	87635	28393.292849449537	4.832330541702
5	87666	28397.796051963563	3.802825970337
5	87671	28398.268890168251	3.667104302043
5	87686	28400.202351559795	4.622031798839
5	87693	28401.625763670658	3.088468594335
5	87700	28403.434127683136	4.760635015567
5	87706	28403.899908083973	3.967701430694
5	87712	28405.822736714144	2.705373599877
5	87754	28413.21421213434	3.811592346448
5	87777	28420.303673292947	3.192368165959
5	87784	28423.1943198357	5.142128742066
5	87789	28424.450656258648	5.094950175832
5	87828	28432.773706751579	6.802691107257
5	87839	28434.852411699953	6.197020654629
5	87844	28435.655666501856	6.896568302218
5	87849	28435.695390899356	6.599449124112
5	87861	28438.193043297745	8.246192572137
5	87874	28445.722028239306	14.700249561974
5	87884	28446.531034034783	14.399495841337
5	87889	28447.574458626883	11.17448879189
5	87897	28449.284977929986	3.349660236614
5	87927	28460.635216442053	2.635607054465
5	87949	28464.57775032868	2.235350356833
5	87955	28465.788480474678	3.270315461212
5	87962	28466.647789718322	2.856068245943
5	88013	28488.769236954191	3.082762148478
5	88052	28499.106245961538	7.308582752613
5	88058	28499.490705796684	6.693438423648
5	88067	28501.076755975932	8.220674670965
5	88072	28501.092284634897	7.892628193393
5	88077	28502.557280982385	8.982120628145
5	88086	28503.148251462429	5.308152998287
5	88095	28504.674350766951	3.640646943748
5	88112	28512.113313981319	9.206075540415
5	88120	28514.077645124241	10.820962942689
5	88137	28517.527807423603	12.652566531561
5	88148	28522.747137489911	8.132190548369
5	88157	28526.344741857657	11.695282806024
5	88165	28533.760843553646	19.084043321599
5	88171	28535.141640127174	17.886928155818
5	88195	28545.874726334893	9.735388985583
5	88204	28546.455834957846	7.773895646162
5	88209	28546.875527804164	0.776758077679
5	88224	28548.859565187943	0.54749215704
5	88238	28552.599745886997	3.566653235166
5	88247	28555.152257175883	2.96385652346
5	88253	28555.860149310001	1.090997199413
5	88265	28557.392789979383	0.810870810801
5	88288	28567.836168247915	6.985927228837
5	88293	28568.540132505753	3.768271721835
5	88312	28571.807189326771	2.860192456567
5	88317	28572.212831511462	1.156113261309
5	88322	28572.71111993625	1.089087969123
5	88352	28582.575941292281	6.531054562329
5	88358	28583.599387332785	3.249842844287
5	88383	28592.568795513136	6.152281192073
5	88395	28597.654354135621	9.351244809918
5	88400	28598.232728440531	5.068185527169
5	88407	28600.801167528689	4.292186953882
5	88415	28602.357733155802	1.703369302306
5	88447	28613.608320272457	1.086798205123
5	88463	28618.380207499559	2.746859388392
5	88468	28620.45362271401	3.196878829875
5	88482	28624.456864942954	2.5498028023
5	88499	28631.546381110045	4.929937952015
5	88504	28631.619729593161	0.137737451453
5	88527	28640.148916713239	6.422456701872
5	88532	28640.198001545893	6.353861117497
5	88551	28645.621388652193	3.720115318954
5	88565	28650.148045942858	6.982635108103
5	88570	28650.642145904104	6.984149070867
5	88576	28652.836758078883	6.260812427925
5	88605	28667.878730097047	8.094682243802
5	88644	28683.623871079076	5.768588201498
5	88656	28685.724823041081	1.846988987023
5	88675	28690.139149939743	4.089603137527
5	88680	28694.027356606168	7.067437108022
5	88685	28694.556675335731	4.834504019444
5	88706	28700.497667351255	2.769555503814
5	88711	28701.069745031617	1.239285845727
5	88740	28717.366777285732	7.051632242863
5	88750	28724.120819492143	12.547511273695
5	88755	28724.815466757806	10.557467609005
5	88762	28726.041270222925	9.727739497619
5	88767	28727.105925084322	9.453998460074
5	88773	28728.072295109196	7.667375342797
5	88791	28733.365885791638	7.689999421997
5	88796	28733.386599363071	3.379223531103
5	88801	28734.075337768027	3.710298219288
5	88812	28738.744818593735	7.759200426436
5	88821	28740.447009603771	9.289772844935
5	88832	28742.095303439656	7.344968028849
5	88837	28742.409330897496	5.935413622303
5	88842	28743.035616713396	2.719903930244
5	88865	28747.023761536179	0.538254840614
5	88904	28758.792743441784	1.825502209589
5	88914	28762.609654730055	4.999997717643
5	88947	28777.313827639615	14.517714811063
5	88955	28779.339635514862	14.606286131943
5	88960	28780.251757042983	13.212013491521
5	88973	28782.29150928795	9.430093019634
5	88980	28783.78203984711	9.009896810768
5	88985	28783.951174527447	8.728390707935
5	88991	28786.810065421946	10.431005645527
5	88996	28788.175563201525	10.967627977468
5	89002	28788.926853168574	8.586873296395
5	89007	28789.198092121485	8.379698965684
5	89012	28789.272491387494	7.235375181558
5	89044	28803.120515717848	13.183691184283
5	89055	28805.220232989917	3.787383788117
5	89065	28809.829299488345	7.231342385432
5	89071	28810.278900358659	5.091428713458
5	89080	28814.305732762687	8.208960053835
5	89085	28814.456169440275	7.427697809689
5	89101	28819.2511794168	2.388811179643
5	89131	28825.960253491029	3.894897363681
5	89136	28828.078733790114	5.93066265808
5	89154	28833.302620819706	4.017052372587
5	89180	28843.080635993047	9.337616258257
5	89185	28843.099325242807	7.624234224009
5	89192	28844.605810858207	6.817276565869
5	89197	28844.938974969829	6.919456411024
5	89202	28845.048371686948	1.883879959953
5	89220	28847.331207451907	1.528596065747
5	89231	28851.49866248918	5.012669330832
5	89241	28852.320994280077	5.354416972085
5	89249	28853.939592946648	2.036179173763
5	89286	28863.545974291237	3.287006878335
5	89305	28867.357672367866	2.388348243418
5	89328	28880.220273669047	3.458182512033
5	89335	28881.443614271575	1.700317300485
5	89350	28883.239991249114	1.83002475497
5	89359	28885.519475316606	3.096830842285
5	89366	28888.83916761873	5.72913246054
5	89375	28898.075769808437	12.735371671849
5	89381	28899.977971118454	12.733928849533
5	89386	28900.20236419853	2.145660044872
5	89408	28905.792093261955	3.714783681571
5	89415	28908.513834135801	6.352529573874
5	89421	28909.045159745097	5.481252931717
5	89455	28918.91552850327	5.492884015188
5	89470	28924.294517599506	8.754391706546
5	89477	28925.890444619558	10.221164016291
5	89483	28931.105418633979	14.316600803585
5	89488	28931.17847265708	11.961460312103
5	89493	28932.118941137028	9.146206046816
5	89510	28936.273309307961	13.084547787236
5	89526	28945.016824156948	21.456403305971
5	89536	28945.693829235948	22.032616403361
5	89555	28960.215288868002	25.193151222779
5	89563	28962.794062530814	23.308396992309
5	89568	28963.135837066623	22.115523019765
5	89577	28967.337001348995	22.056101029272
5	89584	28972.311645740255	26.935142079723
5	89591	28973.298328498237	27.340272339278
5	89596	28973.896617117428	18.224063758561
5	89601	28975.155460172885	15.301926599101
5	89606	28975.313815910438	14.71058356667
5	89633	28987.093772322356	6.14542696228
5	89638	28989.376985006548	8.095493396666
5	89648	28992.649829938857	6.701939157356
5	89654	28992.67063900327	5.761730870569
5	89659	28993.694672417733	3.667115359224
5	89677	29000.020492598362	0.52554752032
5	89689	29000.99340001168	0.634474029921
5	89720	29010.816029453428	0.704895088625
5	89738	29018.315562912563	4.626097654037
5	89760	29025.559996521618	4.633394090044
5	89766	29025.980223339821	1.912644205976
5	89795	29032.366717522844	1.462558856669
5	89821	29044.580374906835	7.884438173811
5	89826	29044.963367269849	7.764210813067
5	89833	29046.660927083209	8.552025394967
5	89838	29046.715670821641	2.265627960617
5	89864	29055.27990246118	7.038061958887
5	89876	29060.54956264384	8.046879085459
5	89884	29061.574347915319	6.611056219552
5	89895	29062.903563791236	3.611209045847
5	89902	29064.572529888637	2.270755720674
5	89917	29069.177691538972	3.040526174979
5	89927	29071.628360453523	4.242531318036
5	89936	29074.292314170497	3.686285162068
5	89941	29074.883325825182	3.924616490648
5	89950	29077.175430368581	3.244814485822
5	89957	29078.322672338698	4.236405184893
5	89977	29083.227773526121	2.838207014065
5	89983	29083.847980509145	1.159879336958
5	90003	29096.201109293303	5.982727131405
5	90032	29107.565631105513	9.363751365571
5	90039	29108.881550166267	9.609027253792
5	90047	29112.034527967393	10.915002900624
5	90064	29117.390779485717	15.423149759907
5	90070	29118.874297410679	15.834127723896
5	90076	29120.487332970622	4.847576534943
5	90087	29121.955900950371	6.18293056662
5	90093	29122.712118875104	5.798845091878
5	90100	29126.985826969338	9.836986537946
5	90110	29132.544096028461	11.918323877044
5	90116	29134.916399885631	13.192561343598
5	90121	29135.658925069464	5.654686852411
5	90199	29165.264616146785	12.536999988035
5	90213	29169.164211479304	15.347804545333
5	90220	29169.336554286128	9.386909787969
5	90227	29170.527747370497	5.833376677618
5	90234	29172.056760367439	5.104492461242
5	90239	29172.282353497154	4.192586982973
5	90244	29172.328572899181	2.238803715567
5	90256	29176.484942889461	5.251774221778
5	90271	29182.403410801917	7.473164507055
5	90278	29183.284710097266	2.785602761457
5	90283	29183.676479330264	1.374530633722
5	90327	29193.78662642342	5.838253226949
5	90332	29193.852133061448	4.985096441139
5	90338	29195.410884167467	4.833310351048
5	90357	29203.740058522342	11.978257731756
5	90362	29204.984574048138	3.141306470928
5	90382	29209.385747824495	3.228180865534
5	90419	29227.735481606427	9.307914829902
5	90424	29228.21657459719	5.318142815722
5	90441	29235.623050896159	12.274439571414
5	90446	29236.049796323671	10.06688428754
5	90451	29236.580086205595	7.586663193548
5	90457	29237.205825051409	5.176567232433
5	90521	29270.771811629163	7.774104031074
5	90555	29286.706301855396	9.523547383351
5	90562	29288.005627661591	3.274239348302
5	90581	29291.220846138522	5.13011344636
5	90590	29298.279800864793	9.557649773259
5	90596	29298.90424941146	10.065003713386
5	90601	29299.122801009255	9.517441659222
5	90607	29300.109326789313	9.507400947556
5	90619	29310.047146603981	14.986637788793
5	90628	29314.457202338077	17.319619193162
5	90641	29319.371772999588	12.873111107201
5	90646	29322.270259157304	9.356513483377
5	90651	29322.910899147792	8.299868088369
5	90665	29326.859160614595	9.230705856559
5	90672	29327.070687273852	7.897052903771
5	90682	29328.856455993751	4.444037494272
5	90689	29332.224108766406	5.6881158553
5	90694	29333.025365914183	6.021240402832
5	90707	29336.986651928447	8.458720360234
5	90715	29339.616712062404	5.468270970594
5	90720	29342.259279760472	2.802431802793
5	90754	29348.750019205456	2.795215922522
5	90759	29350.769661891092	4.619693404481
5	90783	29360.138616725955	4.22193808122
5	90788	29360.354778732094	3.590696895075
5	90793	29361.130749820047	3.934757110003
5	90824	29373.091721381982	9.225309853636
5	90837	29381.337359051838	15.420038707665
5	90842	29382.110771175482	15.240848348167
5	90851	29382.858737722861	14.641983028239
5	90863	29387.87249381365	15.475215454528
5	90869	29389.252003750178	12.169189659634
5	90878	29389.831842625639	10.883046329871
5	90883	29391.214435082943	8.607476622702
5	90894	29393.888204871932	8.500363990119
5	90904	29410.448519514089	23.44205772725
5	90909	29411.125857546756	18.631991836744
5	90916	29413.457983458241	12.686929039073
5	90921	29414.99063798583	1.557355039426
5	90946	29421.354342692568	6.11685476804
5	90951	29423.444574956899	7.065315879882
5	90956	29423.97693551822	5.334275487932
5	90981	29426.452843530079	1.324078086797
5	91009	29442.814512621726	15.346136734591
5	91015	29444.808547367114	11.781156943496
5	91025	29449.746096631078	9.042930114366
5	91037	29452.731659150676	10.402213018455
5	91046	29455.257426102837	7.450961593705
5	91055	29456.904515552001	8.640508344828
5	91063	29458.658245594201	7.26531016683
5	91071	29461.202121412162	8.787929151353
5	91077	29463.265283029653	10.700142109841
5	91082	29464.696450823659	11.542860151333
5	91097	29469.195243953986	13.753538148656
5	91107	29470.972836064128	12.491579251236
5	91114	29472.023361712015	5.22993531249
5	91121	29474.019215987624	5.739045456136
5	91126	29474.318102932258	5.280618435843
5	91131	29474.854196249699	4.610705902782
5	91161	29480.608624006723	0.018980285516
5	91185	29494.271292928414	6.614088280078
5	91202	29497.138347088536	1.119871741073
5	91228	29511.071680287076	3.317966862582
5	91233	29512.334566120524	4.238323885707
5	91241	29515.179948695485	5.70652582491
5	91249	29516.144294401572	6.662887430963
5	91255	29517.187269166188	7.6891628264
5	91271	29520.604556319427	3.06860467752
5	91284	29523.407383716138	2.896074523414
5	91292	29524.686690983729	3.43245258583
5	91309	29531.709016926211	8.105618749175
5	91315	29533.697676222101	6.500686159657
5	91323	29536.013552355963	8.23846276962
5	91331	29538.784971270654	8.837102137496
5	91336	29539.150726758343	8.637393068727
5	91347	29542.235375904824	6.55319801959
5	91354	29544.51589813655	7.79701252621
5	91359	29545.917451644132	5.820189021964
5	91364	29546.549494545358	3.207273753019
5	91392	29556.64063308025	7.09263675586
5	91397	29557.366215270294	0.786067207266
5	91443	29574.078893800985	3.106673820298
5	91477	29589.927749940536	5.757390503263
5	91484	29592.226013703698	8.050540546168
5	91501	29598.370381603956	4.074920348692
5	91507	29599.917262345495	5.234510511116
5	91523	29601.908887101292	1.329015456565
5	91541	29605.500405266498	3.247325103333
5	91578	29614.688412721466	2.526915061229
5	91583	29614.769375580854	0.625623540081
5	91602	29621.301603476237	2.808530340498
5	91655	29641.83107164843	5.711231801883
5	91681	29651.250372568731	8.920836531159
5	91687	29652.086793602564	5.411537958179
5	91695	29654.835359136921	4.656277943687
5	91700	29655.338943586303	2.883504936191
5	91737	29665.978313501889	5.573569585104
5	91745	29668.798891338584	3.816033905562
5	91752	29671.196254322503	2.686277932122
5	91791	29697.328242501307	12.036295298545
5	91798	29698.568433562212	4.298673856056
5	91803	29698.873132185656	0.861558807888
5	91824	29710.555938149857	8.197197528903
5	91834	29713.753885900541	10.802934512963
5	91845	29715.573668625069	12.115091365045
5	91857	29719.08033106569	7.694516485426
5	91866	29722.053920126962	8.000176277482
5	91874	29723.736939594192	9.393987482878
5	91888	29731.328645651589	15.350393412488
5	91895	29732.176581459935	14.696102760786
5	91904	29735.452903352562	16.697319400658
5	91911	29736.302271330273	14.465731037956
5	91917	29737.647550216036	15.504427216678
5	91929	29741.384688354986	16.901053860037
5	91934	29741.74222598342	13.534781370273
5	91942	29745.691396953475	9.921772943425
5	91947	29746.086733335513	5.873647604616
5	91966	29752.29799927962	5.333382088028
5	91973	29754.736535613207	3.155602532447
5	91981	29756.988632888068	2.990776014919
5	91995	29759.571620338521	2.001898796983
5	92003	29760.790539336284	2.7256715579
5	92011	29762.511856397095	2.654368731615
5	92021	29767.418946192346	4.93179717399
5	92028	29775.136106861347	10.540733424428
5	92033	29775.157898015825	3.533048053043
5	92053	29788.746063356793	5.059773185499
5	92059	29793.434679728906	8.745242828732
5	92087	29799.450975712653	0.494539022706
5	92114	29805.036096746114	4.098528438832
5	92127	29807.669376286752	1.885807135935
5	92155	29818.508242289992	7.10565518351
5	92161	29818.927277771322	4.478504392201
5	92194	29826.546080089633	3.659449559633
5	92200	29827.78558999944	3.97482918818
5	92221	29831.451517863435	2.275179271174
5	92231	29836.958265678588	5.78460280367
5	92236	29837.311806202355	5.929102154241
5	92249	29844.582546730983	4.033260020242
5	92300	29851.333008824522	1.523124939469
5	92347	29875.489483909075	7.019451702457
5	92354	29876.955493543288	4.255741234053
5	92381	29883.546270647819	1.725447676019
5	92387	29884.945380533591	3.044524997215
5	92400	29888.017257265985	5.903319802631
5	92406	29888.51964695043	2.890769788504
5	92412	29889.500135475022	1.518467448003
5	92455	29899.450589745165	1.086788315014
5	92476	29905.189154184997	1.880519158244
5	92486	29906.057020622156	1.842855641593
5	92496	29907.441207808094	3.078084368718
5	92504	29909.351396402883	3.30414556534
5	92516	29915.727020323678	9.317442620002
5	92524	29916.890860625535	9.885429041617
5	92530	29917.361047875284	3.563361061982
5	92535	29918.970791396045	2.627554389071
5	92550	29924.367692864034	2.773340017465
5	92573	29929.621842705948	4.872034497302
5	92585	29935.190088261093	7.763870785046
5	92592	29936.939199502603	8.681135271687
5	92597	29937.749213461495	7.614623664886
5	92602	29937.765104114512	5.604799334437
5	92623	29945.075438989024	5.242286839529
5	92640	29948.944174823018	7.935346745098
5	92649	29950.168568980338	6.151318545827
5	92654	29950.324918191493	4.233275996691
5	92666	29954.817159227498	8.26047661517
5	92683	29960.765152935415	13.936929868987
5	92691	29963.23613993255	5.176436796373
5	92699	29966.583212923133	7.673804668935
5	92705	29969.148640144601	8.980196140385
5	92713	29972.690604932725	10.376124177799
5	92720	29974.302741503135	8.805576358911
5	92733	29978.079050354093	6.187059472827
5	92742	29979.275579141662	5.411564624216
5	92747	29979.581435999424	4.34205260093
5	92757	29985.92510102693	10.138026446658
5	92769	29994.194174352706	17.360835482392
5	92779	29997.112380891571	19.821930318429
5	92784	29997.379433781677	18.930973659277
5	92789	29997.94605607932	17.862981389432

