version 2
run Third-n2-1-20191016-14:53:34-3316
attr configname Third-n2
attr datetime 20191016-14:53:34
attr experiment Third-n2
attr inifile omnetpp.ini
attr iterationvars ""
attr iterationvarsf ""
attr measurement ""
attr network org.omnetpp.queueing.Pizza
attr processid 3316
attr repetition 1
attr replication ""
attr resultdir results
attr runnumber 1
attr seedset 1
param **.PS.maxInventoriedPS 2
param **.U1.interArrivalTime exponential(4s)
param **.U2.interArrivalTime exponential(6s)
param **.PS.serviceTimeForInventoryU1 exponential(1.4s)
param **.PS.serviceTimeForInventoryU2 exponential(1.4s)
param **.PS.serviceTimeDirectU1 exponential(1.8s)
param **.PS.serviceTimeDirectU2 exponential(1.8s)
param **.PS.probabilityProducing 0.8
param **.CS.serviceTimeU1 exponential(2.3s)
param **.CS.serviceTimeU2 exponential(2.3s)

vector 0 Pizza.EntryQueueU1 queueLength:vector ETV
attr interpolationmode sample-hold
attr title "queue length, vector"
vector 1 Pizza.CS queueLength:vector ETV
attr interpolationmode sample-hold
attr title "queue length, vector"
vector 2 Pizza.EntryQueueU2 queueLength:vector ETV
attr interpolationmode sample-hold
attr title "queue length, vector"
vector 3 Pizza.sink lifeTime:vector ETV
attr interpolationmode none
attr title "lifetime of arrived jobs, vector"
attr unit s
vector 4 Pizza.sink lifeTimeU2:vector ETV
attr interpolationmode none
attr title "lifetime of arrived jobs, vector"
attr unit s
0	0	0	0
0	8	7.254924258687	1
0	10	7.84011273442	0
0	16	8.332140089392	1
0	18	8.815258635677	0
0	34	15.737672235488	1
0	35	17.604517254212	0
0	82	45.41909877662	1
0	84	45.833200185243	2
0	85	47.728423575114	1
0	94	49.429612510892	2
0	101	54.138638874568	3
0	104	55.013579096755	2
0	109	56.237052952002	1
0	116	58.778474347854	2
0	117	59.426858039923	1
0	123	60.183836139964	0
0	150	63.101199107903	1
0	156	64.541063759281	0
0	172	73.050180686786	1
0	173	73.672805476571	0
0	182	74.259896352674	1
0	188	76.39802048621	2
0	189	76.855936709504	1
0	194	78.621525946523	0
0	205	79.509360868213	1
0	206	80.368825653024	0
0	232	88.09597817576	1
0	234	88.636119150749	2
0	236	90.670001691143	1
0	244	93.867165527906	0
0	259	97.228922903937	1
0	260	98.391653246259	0
0	268	101.117148637337	1
0	269	101.947994475866	0
0	275	102.873093682511	1
0	276	103.154297921216	0
0	282	104.783967991598	1
0	287	108.52931630604	0
0	307	110.690507551124	1
0	310	113.867237413798	0
0	328	120.257709486449	1
0	330	120.847701087608	2
0	334	126.278759258991	3
0	336	127.13131470156	4
0	337	130.324178784852	3
0	343	130.926401698428	2
0	348	131.464398621502	1
0	357	131.905004822879	2
0	359	132.011247295478	3
0	361	132.465558742189	4
0	363	132.580418111234	5
0	364	134.323634442315	4
0	371	135.432269213043	5
0	375	138.528232621651	6
0	376	138.846153244436	5
0	381	139.596348494681	4
0	389	140.349301639079	3
0	398	141.747426596536	4
0	399	142.242948462953	3
0	408	146.643726299299	2
0	413	147.927790494218	1
0	419	148.197851763999	2
0	420	148.265222418534	1
0	431	149.994920728884	2
0	433	151.018152506707	3
0	435	154.742026741464	2
0	441	154.850031368458	3
0	443	154.900573266189	4
0	445	155.456562424266	5
0	447	155.755345761811	6
0	450	157.14994311433	7
0	451	157.185207947037	6
0	457	157.707925724749	5
0	466	158.940186986752	6
0	469	160.840290712639	5
0	474	160.958309073597	4
0	479	164.065047041488	3
0	484	165.084466867556	2
0	492	170.108852127356	3
0	494	170.791015709652	4
0	495	171.966695162377	3
0	500	172.09357922355	2
0	505	175.436899893319	1
0	509	176.48864248405	2
0	513	179.770619349275	1
0	519	179.853852708248	2
0	520	180.133702932309	1
0	527	181.76690682746	2
0	528	184.559238089807	1
0	533	184.885542613074	0
0	550	186.19226985264	1
0	552	187.115678673226	0
0	559	187.398393840888	1
0	560	187.610109438233	0
0	570	190.835996425473	1
0	571	193.561842459174	0
0	580	196.043980460092	1
0	582	196.767220600368	2
0	583	196.963981266456	1
0	589	198.244022119523	0
0	624	207.518568135176	1
0	627	212.280585078609	0
0	635	214.126671164533	1
0	636	214.441612732599	0
0	653	215.878070066134	1
0	654	221.642636155062	0
0	689	228.887516875567	1
0	692	232.049206016691	2
0	695	233.791063300689	1
0	701	235.340899393302	0
0	721	238.459126478244	1
0	722	239.731584542468	0
0	743	245.210888279831	1
0	744	246.13833860846	0
0	774	255.244495680751	1
0	775	255.560231525988	0
0	784	260.027317252724	1
0	785	260.054755352687	0
0	799	266.258492956268	1
0	800	267.908340155772	0
0	809	268.656201904471	1
0	811	268.749967281782	2
0	814	269.813237158046	1
0	822	270.803145862698	2
0	826	271.107108669823	1
0	833	272.386708849023	0
0	863	285.371447105319	1
0	865	286.190276802339	2
0	869	289.58937335811	3
0	871	289.770502303345	4
0	872	289.988971274963	3
0	877	290.033839208795	2
0	885	291.475516661579	1
0	890	291.666359757577	0
0	902	292.698151045334	1
0	904	293.001890022379	2
0	908	295.613151950286	1
0	916	297.059872146275	0
0	922	297.666199949245	1
0	923	299.124682104394	0
0	945	304.966126827577	1
0	947	307.384430791758	0
0	956	307.782667586725	1
0	958	308.468572128754	2
0	962	309.367732118937	1
0	974	312.304165542187	2
0	975	312.961316536177	1
0	981	315.40325767914	0
0	987	316.86740729641	1
0	991	317.492581423763	2
0	993	317.690603153877	3
0	994	318.605833777399	2
0	1004	320.621081999846	3
0	1008	321.495607132719	2
0	1014	322.18947613465	3
0	1022	325.282054162808	4
0	1023	325.362042893475	3
0	1028	328.02001082306	2
0	1034	331.162775807982	1
0	1042	332.286221212192	2
0	1043	334.860062776021	1
0	1050	337.886301858879	0
0	1056	338.169079060679	1
0	1060	338.569752624633	0
0	1066	339.196198994867	1
0	1067	340.222985128778	0
0	1073	341.559617315307	1
0	1075	341.746563314274	2
0	1080	349.859899920941	1
0	1088	351.0787411916	0
0	1095	360.360553162926	1
0	1096	362.812428149364	0
0	1102	363.519809374555	1
0	1105	364.101891694164	2
0	1107	365.860287086586	3
0	1108	366.620966716163	2
0	1113	367.023061807075	1
0	1122	372.761415398583	0
0	1128	374.592676348378	1
0	1129	376.524136932354	0
0	1140	379.312109594366	1
0	1141	379.40333324291	0
0	1160	382.555578301348	1
0	1162	384.997980426961	2
0	1164	385.892929142834	3
0	1166	386.127385813664	4
0	1169	387.203381468204	3
0	1174	388.033187581613	2
0	1182	389.192171570118	1
0	1191	392.755319089828	0
0	1199	394.603546443225	1
0	1201	395.796108157105	2
0	1202	395.837113879938	1
0	1208	395.927536141407	2
0	1209	396.16384879079	1
0	1214	397.200414761003	0
0	1221	398.429501352262	1
0	1223	400.37760604369	0
0	1229	400.668296330538	1
0	1231	400.855872561137	2
0	1232	402.688046905437	1
0	1237	404.098993445055	0
0	1245	407.353332371096	1
0	1247	408.65296046814	2
0	1250	410.892805279939	3
0	1251	411.01563081536	2
0	1256	411.041722987446	1
0	1267	413.44803420397	0
0	1280	417.842114638417	1
0	1284	419.800559810973	2
0	1285	424.456512222276	1
0	1290	425.831900105281	0
0	1299	427.036508009441	1
0	1300	428.388329177499	0
0	1336	446.084070151634	1
0	1338	447.991905226262	0
0	1354	448.942364997693	1
0	1356	451.3947943376	0
0	1380	458.39210872649	1
0	1382	459.027118122299	2
0	1387	461.568126866222	1
0	1397	466.557094139853	2
0	1400	469.608398271701	3
0	1402	471.118632867773	4
0	1403	472.575865623038	3
0	1409	473.626010423158	2
0	1417	475.277502062419	1
0	1424	477.037807453129	2
0	1425	478.179825420152	1
0	1432	479.877804494545	0
0	1438	481.23770842669	1
0	1440	484.508167384316	2
0	1441	484.889434433468	1
0	1449	486.276423414338	0
0	1461	487.40438022607	1
0	1463	488.067624207343	0
0	1484	494.254798185332	1
0	1485	496.887035400521	0
0	1504	498.351474294078	1
0	1505	498.407479517084	0
0	1544	506.116404492328	1
0	1545	506.971699465447	0
0	1555	509.044089487234	1
0	1562	515.800253813753	0
0	1600	531.964707493372	1
0	1602	532.690931596024	2
0	1605	534.955380109607	1
0	1610	534.985793929129	0
0	1614	536.696320249631	1
0	1616	538.437993801235	2
0	1622	544.344575106476	3
0	1623	545.077131020479	2
0	1629	545.964058120143	1
0	1635	546.790142871864	2
0	1636	546.827575400999	1
0	1641	547.24445302523	0
0	1649	548.332515338101	1
0	1651	549.500744652846	2
0	1652	550.013558449235	1
0	1659	550.359465128048	0
0	1668	551.994167913138	1
0	1670	552.552760309842	2
0	1672	554.574780257866	3
0	1674	554.667507288909	4
0	1675	555.071120856798	3
0	1681	558.890665969313	2
0	1688	561.457868800783	1
0	1694	562.616028069519	2
0	1695	562.829746118486	1
0	1699	566.064889685326	2
0	1701	566.643171928094	3
0	1707	568.786166136874	2
0	1713	570.778529283244	3
0	1714	571.027330696848	2
0	1719	574.117196062553	1
0	1725	574.968163084543	2
0	1728	576.521882875984	1
0	1733	576.546792402365	0
0	1755	581.519745610367	1
0	1758	582.833606362442	0
0	1764	583.26468967746	1
0	1765	584.2084908997	0
0	1774	584.741079361962	1
0	1776	585.45323157204	2
0	1778	586.454245991469	3
0	1782	587.260724873898	4
0	1783	587.310744156017	3
0	1790	588.534383573225	4
0	1793	589.004657464958	5
0	1797	590.632806778664	4
0	1803	591.2390361853	3
0	1810	593.320637009571	4
0	1811	596.972801795925	3
0	1816	597.138439902504	2
0	1825	598.290306959738	3
0	1829	601.280568848045	2
0	1834	601.442463131869	1
0	1842	608.569876578	2
0	1846	609.475482596307	3
0	1847	610.024953936942	2
0	1853	611.385016567995	1
0	1859	611.732259892912	2
0	1860	612.354912468334	1
0	1866	612.56895163679	2
0	1867	613.724121815204	1
0	1873	618.183624428236	2
0	1874	620.040857490828	1
0	1879	623.370465267899	0
0	1883	624.88926462808	1
0	1888	626.033844765461	0
0	1909	635.428479524937	1
0	1912	635.674908399728	0
0	1918	635.772132232549	1
0	1920	637.621253073555	2
0	1923	640.803743321907	1
0	1929	641.321194030919	0
0	1936	642.727016398678	1
0	1937	645.644201499834	0
0	1943	646.089470101489	1
0	1946	646.66012614789	0
0	1959	655.310743524961	1
0	1964	658.370415114158	0
0	1980	661.521775430495	1
0	1983	662.121222676484	0
0	1993	664.72548168375	1
0	1994	666.422920948392	0
0	2008	672.646518817134	1
0	2009	673.663545283767	0
0	2028	676.835927620802	1
0	2031	677.875441002964	2
0	2034	680.783818957808	3
0	2035	681.235632687469	2
0	2041	684.526095195143	1
0	2046	684.974159270255	0
0	2052	685.693552344451	1
0	2055	687.158875238077	0
0	2062	689.334766345086	1
0	2063	689.965767212824	0
0	2078	691.108644165071	1
0	2081	692.070411901185	0
0	2088	692.547343244915	1
0	2089	692.847511798784	0
0	2095	693.142989517958	1
0	2098	695.132250384785	0
0	2110	696.949325450531	1
0	2114	697.760989923961	0
0	2128	700.600318128784	1
0	2132	702.677012282301	2
0	2133	703.748569973143	1
0	2139	705.113951145966	0
0	2157	707.578718197216	1
0	2162	711.45203968638	0
0	2193	724.98134053132	1
0	2197	729.806924001739	2
0	2198	731.452016395965	1
0	2204	732.915308843773	2
0	2209	735.92409068349	1
0	2215	736.831556944947	2
0	2217	737.15515905574	3
0	2219	737.413352109997	4
0	2220	737.80232384208	3
0	2226	738.968548221344	4
0	2228	739.004465417602	5
0	2230	739.047204697559	6
0	2235	743.364646535194	5
0	2240	745.051868897409	4
0	2244	745.967530050485	5
0	2248	750.333536778962	4
0	2254	752.459437074078	5
0	2257	753.468016150912	4
0	2264	757.130158323854	3
0	2272	759.943536857427	2
0	2278	761.511739730188	3
0	2283	767.653345544219	2
0	2288	767.685988367995	1
0	2293	768.068493510823	0
0	2311	772.721048227684	1
0	2312	773.206712778939	0
0	2330	776.894938996508	1
0	2331	779.737863630742	0
0	2344	784.4448668148	1
0	2346	786.59014815667	2
0	2347	788.242833815084	1
0	2353	789.00490934021	0
0	2364	790.635919253707	1
0	2366	792.683925953523	0
0	2372	792.905069405033	1
0	2374	793.031843672953	2
0	2375	793.605975246043	1
0	2381	794.291107449159	0
0	2394	797.812806184624	1
0	2396	798.628054824637	2
0	2398	799.924412712289	1
0	2403	801.784383282506	0
0	2416	809.449187106568	1
0	2425	813.187830615565	0
0	2432	814.037713779824	1
0	2436	815.718169961274	2
0	2439	819.601205110013	1
0	2444	820.563706053803	0
0	2452	821.770034353644	1
0	2453	822.47754743179	0
0	2467	823.988206603293	1
0	2470	825.540419326697	0
0	2481	826.199307364285	1
0	2487	828.167430315736	2
0	2489	828.912462934388	3
0	2490	828.987935716879	2
0	2499	830.648321570979	1
0	2506	832.168642001351	2
0	2508	834.409632312504	3
0	2511	836.067034198442	4
0	2512	839.920337006037	3
0	2518	840.791799126714	4
0	2519	840.884543550466	3
0	2528	845.165494027528	2
0	2534	845.527050652659	1
0	2539	846.013241234908	0
0	2545	847.832321846093	1
0	2552	852.286393685276	2
0	2553	852.485665142518	1
0	2558	854.641417432457	0
0	2601	868.536853548853	1
0	2603	868.795927549113	2
0	2605	869.013729252517	3
0	2607	869.494708291553	4
0	2609	870.384761003362	5
0	2616	877.27852608893	4
0	2621	877.391645677733	3
0	2629	879.762586299478	2
0	2634	879.98199929434	1
0	2644	882.275706537086	2
0	2646	883.1430845028	1
0	2651	883.209565065565	0
0	2671	884.952655299662	1
0	2675	886.39342902942	0
0	2682	888.614741455792	1
0	2686	890.368468930356	2
0	2689	892.229999785715	1
0	2699	899.155105717952	0
0	2707	900.045809245686	1
0	2709	900.286349459984	2
0	2712	906.096138835106	3
0	2714	910.308700899198	4
0	2716	910.435064305104	5
0	2717	911.365427911603	4
0	2723	911.823179566559	3
0	2730	917.186569671206	4
0	2733	920.929586783706	3
0	2741	923.764523210116	2
0	2747	925.248720239222	1
0	2754	925.501218709151	2
0	2755	926.301793264499	1
0	2761	929.28695036973	0
0	2773	930.874143927153	1
0	2775	932.382220242684	0
0	2799	939.02909585295	1
0	2802	939.745977373886	0
0	2825	952.546807952221	1
0	2826	953.974536180815	0
0	2832	954.584904565231	1
0	2834	955.436072523022	2
0	2837	956.275040816668	3
0	2838	957.281042967693	2
0	2843	957.843356169768	1
0	2850	957.938475949597	2
0	2852	958.973075233094	1
0	2859	959.857602565125	2
0	2860	960.993265688043	1
0	2865	961.271125259867	0
0	2873	962.068050281068	1
0	2876	964.561549778257	0
0	2889	970.006016586254	1
0	2891	973.198183875309	2
0	2893	973.360341605916	3
0	2894	974.115889206083	2
0	2899	975.593561069897	1
0	2905	978.863849897754	2
0	2908	980.539238446148	3
0	2910	982.603181984745	2
0	2917	983.642303554423	3
0	2918	983.964178356058	2
0	2924	984.089312588743	3
0	2928	984.700047669121	2
0	2935	986.109041292238	3
0	2936	986.273925145136	2
0	2941	986.385898389868	1
0	2947	986.725345978937	2
0	2951	987.806646717903	3
0	2955	989.757714234375	4
0	2963	993.147965379803	5
0	2964	993.594296930465	4
0	2969	994.584140220788	3
0	2976	996.310179280756	2
0	2984	1004.74036535864	1
0	2990	1005.222791635593	2
0	2995	1006.80069767794	3
0	2997	1006.931598791788	4
0	2999	1008.508571847352	5
0	3001	1011.113371181973	6
0	3002	1011.252945105173	5
0	3007	1012.513133998434	4
0	3014	1013.971094301043	3
0	3019	1014.864311979753	2
0	3025	1016.497566477171	1
0	3031	1017.792344462193	0
0	3047	1019.936197292908	1
0	3048	1020.144737560398	0
0	3064	1025.714655708834	1
0	3071	1027.916240936855	0
0	3077	1028.1356335848	1
0	3078	1028.58691088057	0
0	3118	1040.263202167414	1
0	3122	1046.397297842844	0
0	3153	1055.368068845914	1
0	3154	1057.478207431255	0
0	3161	1058.114763146377	1
0	3162	1058.150446840798	0
0	3172	1061.784818618657	1
0	3176	1062.344215487073	2
0	3180	1065.771302322417	3
0	3181	1066.532973614586	2
0	3186	1067.189406584423	1
0	3197	1070.578851394302	2
0	3198	1074.147957935987	1
0	3206	1074.969598556081	0
0	3223	1079.670376896114	1
0	3225	1080.485950103767	2
0	3227	1081.811869891833	3
0	3228	1083.070894482645	2
0	3235	1084.99970465645	1
0	3241	1087.084187276935	0
0	3247	1087.263331727005	1
0	3248	1087.408235632003	0
0	3257	1089.181655324781	1
0	3259	1091.694304089343	0
0	3286	1102.430786209991	1
0	3289	1103.749521210046	0
0	3295	1105.490897888566	1
0	3297	1105.520281429974	2
0	3299	1106.237076591167	1
0	3304	1106.69129505905	0
0	3310	1107.800373442997	1
0	3315	1111.13566476367	0
0	3347	1117.581026118092	1
0	3349	1119.026889835292	2
0	3360	1126.760864774045	3
0	3364	1129.932680148962	4
0	3366	1130.835851200385	5
0	3367	1133.146488905749	4
0	3373	1133.66580469257	5
0	3377	1136.085368782754	4
0	3382	1136.730074128593	3
0	3388	1137.211485051441	4
0	3392	1141.972371350142	5
0	3395	1144.561038423712	4
0	3401	1148.334737071739	3
0	3406	1148.526667215834	2
0	3413	1151.243858833612	1
0	3419	1152.228823009192	0
0	3438	1156.145717872671	1
0	3444	1161.867580051582	2
0	3448	1166.941837276742	3
0	3449	1167.383765424617	2
0	3454	1167.830906086249	1
0	3461	1170.810076495692	0
0	3467	1171.111145794476	1
0	3470	1173.699269738747	2
0	3472	1173.805549340511	3
0	3473	1174.092460877524	2
0	3479	1174.224505804453	3
0	3483	1176.094338909499	4
0	3486	1177.573529597156	5
0	3489	1181.374731355454	4
0	3494	1181.900734780262	3
0	3500	1182.101628463547	4
0	3502	1182.517090940742	3
0	3507	1182.576445595787	2
0	3511	1183.526198736081	3
0	3514	1186.736767408547	2
0	3520	1188.754618917455	3
0	3523	1190.102834262211	2
0	3531	1191.918717715855	3
0	3532	1194.626362271022	2
0	3537	1196.186128176937	1
0	3541	1196.199580131187	2
0	3549	1199.215813664884	3
0	3553	1201.911463958535	4
0	3554	1202.250785720581	3
0	3559	1207.480731411093	2
0	3563	1210.171175612857	3
0	3571	1214.29846408306	2
0	3577	1214.767528113527	3
0	3578	1214.785507063359	2
0	3587	1219.168408969016	1
0	3595	1220.326523532904	2
0	3599	1223.498115939252	1
0	3605	1227.22702699597	2
0	3607	1229.37489193245	1
0	3612	1230.665066446934	0
0	3618	1230.792669550156	1
0	3623	1235.166870948035	0
0	3653	1250.078521787142	1
0	3655	1250.725003983028	2
0	3658	1251.579506190782	3
0	3660	1252.024076720232	4
0	3661	1253.899608090292	3
0	3667	1254.500540013963	4
0	3669	1255.220476693122	3
0	3677	1256.473323642478	2
0	3686	1258.801986847008	1
0	3691	1259.282300345578	0
0	3697	1260.563665995451	1
0	3698	1261.220185561522	0
0	3702	1261.463418703074	1
0	3704	1264.276116566071	2
0	3706	1264.80007053993	3
0	3710	1266.094264047323	4
0	3715	1267.916450151316	3
0	3721	1268.779680670718	2
0	3726	1269.302804324745	1
0	3733	1273.142054364531	2
0	3737	1274.354912402609	3
0	3738	1276.249984372644	2
0	3744	1277.289016454998	1
0	3754	1283.238696050981	0
0	3788	1290.011504453125	1
0	3789	1291.07005295827	0
0	3803	1293.582978652884	1
0	3805	1295.170404413234	2
0	3806	1295.811948322594	1
0	3814	1298.373149207034	2
0	3815	1300.698900689242	1
0	3824	1304.146686275141	2
0	3825	1305.356079920861	1
0	3830	1305.624846010378	0
0	3844	1306.386715861897	1
0	3850	1309.115206044387	0
0	3864	1309.717503176034	1
0	3868	1310.535688254231	2
0	3870	1312.775106999566	1
0	3876	1313.75661827813	0
0	3916	1326.738482190993	1
0	3919	1330.881915644295	2
0	3920	1332.582097973054	1
0	3926	1332.884651244277	2
0	3927	1333.298367033141	1
0	3933	1334.165509196619	0
0	3945	1334.954720501264	1
0	3946	1335.498538125976	0
0	3957	1338.608109718216	1
0	3958	1339.6691648706	0
0	3975	1349.277267850511	1
0	3976	1353.243759912961	0
0	3983	1353.599552158483	1
0	3984	1356.614992253122	0
0	4013	1368.409720525983	1
0	4018	1371.226062526271	0
0	4029	1372.367330721101	1
0	4031	1374.629937383941	0
0	4042	1383.346370025075	1
0	4043	1383.580936245893	0
0	4073	1388.728699346675	1
0	4074	1390.475511102788	0
0	4089	1394.862170132095	1
0	4090	1396.170097177582	0
0	4104	1404.927140589708	1
0	4109	1413.288111070843	0
0	4118	1413.982271201887	1
0	4122	1414.274886006936	2
0	4124	1414.334300253509	3
0	4128	1414.830652586187	4
0	4130	1415.535749050401	3
0	4135	1417.073451149213	2
0	4141	1417.845610864987	1
0	4155	1422.204636453244	2
0	4157	1422.345240332807	3
0	4158	1423.410048921478	2
0	4165	1423.666492406238	3
0	4168	1426.161031009965	2
0	4173	1426.612046194877	1
0	4178	1427.514812114677	0
0	4185	1431.444167290116	1
0	4188	1433.620586590797	0
0	4215	1446.518657097484	1
0	4216	1448.208236800173	0
0	4231	1451.902952394261	1
0	4233	1452.204372711315	0
0	4239	1454.896339507722	1
0	4242	1455.866477324441	2
0	4243	1455.913678527543	1
0	4251	1456.649878753961	2
0	4253	1461.591612801807	1
0	4258	1461.728021114126	0
0	4266	1463.298974028039	1
0	4268	1465.392085449831	2
0	4270	1466.783866607304	3
0	4271	1467.159818051404	2
0	4277	1467.40715906548	3
0	4280	1471.786243559052	4
0	4282	1472.598036255323	5
0	4284	1473.902278042326	6
0	4285	1474.22568721592	5
0	4294	1476.597039149337	4
0	4300	1477.41103676312	5
0	4306	1480.314769155934	4
0	4311	1481.664033529031	3
0	4319	1484.849045692623	4
0	4320	1487.161303811763	3
0	4327	1488.005424925064	4
0	4330	1492.633980038602	3
0	4335	1495.343127108079	2
0	4343	1496.854658233566	3
0	4348	1500.214413872864	2
0	4353	1500.615204310102	1
0	4359	1500.853292686943	2
0	4360	1500.944527739611	1
0	4364	1501.203265730587	2
0	4368	1501.926085949942	3
0	4370	1502.804666407072	4
0	4374	1506.397066947724	5
0	4382	1511.917297680942	4
0	4387	1511.997885056762	3
0	4391	1512.269182004055	4
0	4394	1512.71063239706	3
0	4398	1515.173504017971	4
0	4409	1520.28024581248	3
0	4413	1521.316875562758	4
0	4415	1521.357773751412	5
0	4421	1524.965115266347	4
0	4426	1525.768093006029	3
0	4436	1527.920416786972	2
0	4443	1529.722182438129	1
0	4449	1530.507147625608	0
0	4463	1535.080473896561	1
0	4466	1537.419979655229	0
0	4485	1542.255744953504	1
0	4486	1542.795619964916	0
0	4493	1544.272896038605	1
0	4494	1544.361625889763	0
0	4515	1549.400365336194	1
0	4517	1549.645132656062	2
0	4522	1554.942531271517	1
0	4527	1554.973671806752	0
0	4540	1560.026460998756	1
0	4543	1564.619979918438	0
0	4547	1564.66556275896	1
0	4553	1565.575651653203	0
0	4559	1566.199694435386	1
0	4560	1566.54817510637	0
0	4564	1567.565491606067	1
0	4567	1568.971673095623	0
0	4609	1579.373429844958	1
0	4611	1580.756447686536	2
0	4613	1580.772661741189	3
0	4615	1581.644947196406	4
0	4624	1585.490343178535	3
0	4629	1585.785407917138	2
0	4636	1586.483734366571	3
0	4638	1590.944644338878	2
0	4645	1591.894939471082	1
0	4652	1595.606550621665	0
0	4658	1595.98905066817	1
0	4660	1596.872730504711	2
0	4662	1598.154012896634	1
0	4671	1602.565763844292	0
0	4677	1603.469165699826	1
0	4680	1604.406380881878	2
0	4682	1604.624178830512	3
0	4683	1605.207451312386	2
0	4688	1605.619907902575	1
0	4697	1606.381368846399	0
0	4720	1611.676124026541	1
0	4721	1612.168657519677	0
0	4734	1616.236090917887	1
0	4735	1619.912364159486	0
0	4741	1620.703869749414	1
0	4743	1621.124872059002	0
0	4766	1633.577666690703	1
0	4767	1635.32857663038	0
0	4773	1635.663113247173	1
0	4774	1636.270664776853	0
0	4787	1637.021748994209	1
0	4792	1641.732935774462	0
0	4799	1647.29681441078	1
0	4801	1647.300948278661	2
0	4802	1648.242953879224	1
0	4808	1650.704281452848	0
0	4823	1655.602687384256	1
0	4826	1657.883245071122	0
0	4845	1664.51534193682	1
0	4848	1664.700217998014	0
0	4860	1668.713500957487	1
0	4863	1671.948310346757	0
0	4873	1676.032376240626	1
0	4874	1677.986467540168	0
0	4883	1681.090827069876	1
0	4885	1682.973790613619	2
0	4888	1685.805486419401	1
0	4894	1687.634344631034	0
0	4909	1691.992278735209	1
0	4914	1695.868809948712	0
0	4921	1698.270530622433	1
0	4923	1700.884218273504	2
0	4924	1701.181890195873	1
0	4933	1702.229384753077	2
0	4934	1703.036075235984	1
0	4939	1705.851110769935	0
0	4962	1709.932504381641	1
0	4965	1712.15400390146	0
0	5010	1733.05126339938	1
0	5013	1733.479936045123	0
0	5024	1735.771002969475	1
0	5025	1736.027213315105	0
0	5031	1736.171731502782	1
0	5035	1737.439459240446	2
0	5038	1738.880197421613	1
0	5043	1739.741678883793	0
0	5080	1751.458619029414	1
0	5083	1758.188761363751	2
0	5084	1758.797279199748	1
0	5090	1762.624589083708	0
0	5115	1768.422152167976	1
0	5116	1768.819776297219	0
0	5125	1770.269514796591	1
0	5126	1770.379426807316	0
0	5148	1778.7928059602	1
0	5153	1781.84407347411	2
0	5154	1784.477847255688	1
0	5160	1785.65253892643	0
0	5178	1792.400701873026	1
0	5180	1792.619613366069	0
0	5196	1797.778655645617	1
0	5200	1799.655225539592	2
0	5201	1801.287624182291	1
0	5208	1802.287403799329	0
0	5230	1808.974418271613	1
0	5233	1809.375801187488	0
0	5239	1810.915800131174	1
0	5242	1817.513367713842	0
0	5251	1821.376292510482	1
0	5255	1823.188897489832	0
0	5262	1825.06297955393	1
0	5264	1825.352341906213	2
0	5266	1826.192692845548	1
0	5272	1827.866003965265	0
0	5278	1827.976454389208	1
0	5280	1828.879730620538	0
0	5321	1840.415642015759	1
0	5322	1840.490565300613	0
0	5328	1841.095008356108	1
0	5330	1841.54422310021	2
0	5335	1844.817835702968	1
0	5342	1845.848132623634	2
0	5344	1849.997305830614	3
0	5345	1853.6240569246	2
0	5350	1854.134015355717	1
0	5358	1857.965753455425	2
0	5361	1860.379653231588	1
0	5368	1865.177799356056	0
0	5383	1869.890266003184	1
0	5384	1869.900479030699	0
0	5403	1873.294845815506	1
0	5409	1876.279478685399	0
0	5433	1888.54000898354	1
0	5434	1890.430083700951	0
0	5448	1895.008996145906	1
0	5450	1895.659214343773	0
0	5467	1898.208181914058	1
0	5471	1902.473855649771	2
0	5473	1903.425717464148	3
0	5475	1903.439961812588	4
0	5478	1906.289532334683	3
0	5485	1910.199572900099	2
0	5491	1910.846224839559	1
0	5496	1911.452431448534	0
0	5502	1911.698000045995	1
0	5504	1912.143993198846	2
0	5507	1912.953438685857	1
0	5511	1915.475069753362	2
0	5515	1915.874156925012	3
0	5516	1916.317032159373	2
0	5520	1917.040810800804	3
0	5526	1921.234010328179	4
0	5530	1922.404992645149	5
0	5533	1924.508761515404	4
0	5538	1924.641268326982	3
0	5542	1924.820216367524	4
0	5551	1928.113754461228	5
0	5555	1930.499063025768	4
0	5561	1931.138844860311	5
0	5562	1931.265715466739	4
0	5568	1931.7921689066	5
0	5571	1932.416107161828	4
0	5578	1934.051216943835	3
0	5584	1935.24034312045	2
0	5589	1936.109854237067	1
0	5603	1938.655864475644	2
0	5610	1945.235157094805	1
0	5615	1945.773954125144	0
0	5621	1945.792880877085	1
0	5624	1948.087499573841	0
0	5628	1948.999723231507	1
0	5635	1953.202554996289	0
0	5641	1953.397484263099	1
0	5644	1954.88038733248	2
0	5645	1956.770781372944	1
0	5650	1958.491809935745	0
0	5664	1963.871139454826	1
0	5665	1964.249542676323	0
0	5690	1973.562482615751	1
0	5692	1974.061910758633	2
0	5695	1975.125226249067	1
0	5704	1977.382962305672	2
0	5705	1977.482385681246	1
0	5711	1978.81955324498	0
0	5717	1981.283395419822	1
0	5721	1984.90153362046	2
0	5722	1985.090777696792	1
0	5727	1985.813087028687	0
0	5735	1987.382296117448	1
0	5736	1987.843358396643	0
0	5743	1990.486132820551	1
0	5745	1992.027926541703	0
0	5759	1993.758040460634	1
0	5760	1994.107948858499	0
0	5769	1995.364599867451	1
0	5770	1995.382349337659	0
0	5776	1995.429680273763	1
0	5778	1998.630843414275	2
0	5779	2000.073279192457	1
0	5784	2000.488316656953	0
0	5796	2003.500420013104	1
0	5802	2005.056960629271	2
0	5806	2008.390616509456	1
0	5812	2009.292851949035	2
0	5815	2011.134191016786	3
0	5816	2012.74436956543	2
0	5822	2012.857363291898	3
0	5823	2014.027293212216	2
0	5829	2014.597017223813	3
0	5830	2014.60116951712	2
0	5835	2015.997680021357	1
0	5840	2017.303418792578	0
0	5873	2030.387418127871	1
0	5874	2031.256841725574	0
0	5885	2031.599525439297	1
0	5887	2032.808598393952	0
0	5898	2035.921266713748	1
0	5902	2037.502918074317	0
0	5934	2049.22222896308	1
0	5939	2049.976587348296	0
0	5946	2052.25288854477	1
0	5948	2055.099268942623	2
0	5949	2057.636707812031	1
0	5957	2059.339298166356	0
0	5971	2062.455286013514	1
0	5974	2063.851108862547	0
0	5987	2065.394262040443	1
0	5989	2068.149013343826	0
0	6007	2076.286615329532	1
0	6008	2077.028110567163	0
0	6014	2078.199731741855	1
0	6017	2081.782131422852	2
0	6018	2081.817989986013	1
0	6023	2082.625661415335	0
0	6032	2083.151632134542	1
0	6035	2090.330678794225	0
0	6039	2091.860284001639	1
0	6045	2093.545370143732	2
0	6048	2097.205537525892	1
0	6054	2098.312266376846	2
0	6060	2099.120338375341	3
0	6061	2099.195299776212	2
0	6069	2100.392358404278	3
0	6070	2104.366486158624	2
0	6075	2105.951297049584	1
0	6085	2113.090716980204	2
0	6087	2113.232866857803	3
0	6088	2115.306670657367	2
0	6094	2116.428911601056	1
0	6100	2117.384072467228	0
0	6106	2117.780777946463	1
0	6107	2118.816306097347	0
0	6120	2121.876089077874	1
0	6123	2121.995983072545	2
0	6124	2123.268238705706	1
0	6130	2124.622654327522	0
0	6153	2131.341840369986	1
0	6160	2136.424369747011	0
0	6179	2141.574416295898	1
0	6181	2144.67610686848	2
0	6182	2145.19903634127	1
0	6189	2145.794951293781	0
0	6206	2148.954542611843	1
0	6207	2149.651713938255	0
0	6211	2149.967124401397	1
0	6213	2150.10034729157	2
0	6219	2154.175831260648	1
0	6225	2155.284474594246	0
0	6255	2160.49070840201	1
0	6256	2161.168226135793	0
0	6269	2163.408183543566	1
0	6271	2165.017438300529	2
0	6272	2165.200187671917	1
0	6278	2166.042663951911	2
0	6284	2169.030794359162	3
0	6286	2172.96812193064	4
0	6288	2173.792066621588	5
0	6290	2173.981998988948	6
0	6291	2174.597351171234	5
0	6301	2176.535264446713	6
0	6302	2177.047896214729	5
0	6310	2177.86856285742	6
0	6311	2178.058517850293	5
0	6320	2183.988969635952	4
0	6325	2188.467099629363	3
0	6330	2188.658044663684	2
0	6335	2189.181472708355	1
0	6339	2189.470259788404	2
0	6347	2193.699028623187	1
0	6354	2194.823492444959	0
0	6358	2195.96341322235	1
0	6360	2197.066737975701	2
0	6364	2198.880258275909	3
0	6366	2199.735100454461	4
0	6369	2200.059441834446	5
0	6372	2206.569739885316	6
0	6374	2208.593014017192	7
0	6375	2209.043265393706	6
0	6381	2211.451177736161	5
0	6389	2215.309219083733	6
0	6391	2216.204437937331	7
0	6392	2217.321803241375	6
0	6397	2217.998805822577	5
0	6405	2221.909634365213	4
0	6415	2224.426889109922	5
0	6418	2229.398156909065	4
0	6424	2229.722769252421	5
0	6426	2230.572116833592	4
0	6432	2230.631343525037	5
0	6433	2230.847747180508	4
0	6441	2233.387793885163	5
0	6442	2234.009504339108	4
0	6448	2234.188808535703	5
0	6449	2235.295658763632	4
0	6455	2235.578915957006	5
0	6456	2235.793177419306	4
0	6460	2236.121935892044	5
0	6467	2238.587715818712	4
0	6474	2240.08585462873	5
0	6477	2240.71925070878	4
0	6486	2243.195693890936	5
0	6488	2245.540073939484	6
0	6490	2245.619323334053	7
0	6491	2248.629303999818	6
0	6498	2250.406539629901	7
0	6500	2253.601379727378	8
0	6502	2255.501338824768	9
0	6503	2256.677928087431	8
0	6508	2256.927471066252	7
0	6516	2257.931477603374	8
0	6519	2262.427190347609	7
0	6525	2263.055348033672	6
0	6530	2263.566066565329	5
0	6535	2264.089555675524	4
0	6540	2265.445408367177	3
0	6555	2274.849805035438	2
0	6563	2275.997874025626	1
0	6569	2276.242554153052	2
0	6570	2277.663187059991	1
0	6577	2280.846540485169	0
0	6589	2288.313146122838	1
0	6590	2289.907449321616	0
0	6597	2290.313898509859	1
0	6598	2290.900643493951	0
0	6610	2294.112310217562	1
0	6611	2294.898443979137	0
0	6621	2298.260190268829	1
0	6624	2301.771210328103	0
0	6636	2305.892483536883	1
0	6638	2307.005409812547	2
0	6640	2308.739658950037	3
0	6645	2314.789535008158	2
0	6653	2318.74865972845	1
0	6659	2320.048914471614	2
0	6662	2322.371336559855	3
0	6663	2322.908766401687	2
0	6672	2327.983878533577	3
0	6676	2330.986691171508	4
0	6677	2331.166241756597	3
0	6683	2331.259958956705	4
0	6684	2331.43855567184	3
0	6690	2333.778685112074	4
0	6692	2334.247326528001	5
0	6694	2335.040969045822	4
0	6700	2336.5994570175	5
0	6704	2336.720398891958	6
0	6708	2337.355197355891	7
0	6711	2337.775156669941	6
0	6717	2338.691404116021	7
0	6718	2340.383892125599	6
0	6722	2341.858576862136	7
0	6725	2343.480282510235	6
0	6732	2344.992300511366	7
0	6733	2345.166877681532	6
0	6739	2345.80630250262	5
0	6746	2346.765197202071	4
0	6751	2347.260856142658	3
0	6757	2348.465360300293	2
0	6762	2349.980430981829	1
0	6770	2351.618766354183	2
0	6776	2354.209958728778	3
0	6780	2356.049075050151	4
0	6781	2356.194903252985	3
0	6788	2358.184706527262	4
0	6790	2358.39924681519	5
0	6792	2358.919316252845	6
0	6793	2360.389083447111	5
0	6798	2360.738845655763	4
0	6804	2361.087965121546	5
0	6809	2362.703628116083	6
0	6813	2366.638939755323	5
0	6818	2367.47167452064	4
0	6823	2369.167768247951	3
0	6827	2369.264294249562	4
0	6832	2372.45501027998	3
0	6836	2374.247811886813	4
0	6842	2375.497147450115	5
0	6843	2376.441287642185	4
0	6847	2377.935188912321	5
0	6851	2381.467571205619	4
0	6856	2381.473255755486	3
0	6861	2385.435511079447	2
0	6865	2385.763545693572	3
0	6868	2387.467688615172	2
0	6876	2391.964408220243	3
0	6877	2392.897332919294	2
0	6882	2393.314996769489	1
0	6889	2397.699264274996	0
0	6897	2399.794458325673	1
0	6898	2401.055034809552	0
0	6906	2403.798167976308	1
0	6908	2403.92819540054	2
0	6911	2406.472063991802	1
0	6915	2407.201671896099	2
0	6917	2407.342663785886	3
0	6921	2410.532959959705	2
0	6926	2411.6105858653	1
0	6934	2417.189856288134	0
0	6949	2421.518011900917	1
0	6950	2422.813211408128	0
0	6959	2424.655859144059	1
0	6960	2425.251124086295	0
0	7000	2439.733535434907	1
0	7001	2440.234190456729	0
0	7007	2440.507202860351	1
0	7009	2441.40318671664	0
0	7025	2447.933409111511	1
0	7026	2448.201481743482	0
0	7058	2464.240759872361	1
0	7062	2468.16424320966	2
0	7065	2468.948337292278	1
0	7070	2468.992179310536	0
0	7092	2478.843489987598	1
0	7093	2479.4173064615	0
0	7105	2480.467156136752	1
0	7106	2480.790966909023	0
0	7120	2483.729209239319	1
0	7123	2485.358308916209	0
0	7127	2486.102622086055	1
0	7130	2487.656596561906	0
0	7134	2489.068825484892	1
0	7138	2491.742419775328	2
0	7140	2492.315103276312	3
0	7148	2494.144168377416	2
0	7157	2496.570296421186	3
0	7158	2497.184834075272	2
0	7163	2497.467969235133	1
0	7176	2498.664999844009	2
0	7178	2502.626313319113	3
0	7180	2502.733859650541	4
0	7182	2502.788757766903	5
0	7183	2503.093914895185	4
0	7190	2504.764885845901	5
0	7191	2505.32170818149	4
0	7198	2506.998059866225	5
0	7201	2507.515783041325	4
0	7206	2509.136686953376	3
0	7215	2510.559575128138	2
0	7219	2511.374569593964	3
0	7222	2512.252529093357	2
0	7228	2514.303856577884	1
0	7233	2515.023497948475	0
0	7243	2517.976456629941	1
0	7245	2519.512851834175	2
0	7246	2520.504120757584	1
0	7253	2522.108526786962	0
0	7271	2524.379766920438	1
0	7273	2527.154035267882	0
0	7287	2527.862051160878	1
0	7290	2528.703812713441	0
0	7299	2529.098529600958	1
0	7301	2530.454576713348	2
0	7305	2532.249039343759	1
0	7312	2532.572500286137	2
0	7315	2535.263782907879	1
0	7323	2536.640018979941	2
0	7325	2537.573286510534	3
0	7326	2537.649408780934	2
0	7334	2538.837403681421	1
0	7340	2540.97476659754	2
0	7342	2542.294253897064	3
0	7346	2542.8856726134	4
0	7347	2543.86153017853	3
0	7352	2543.961729696113	2
0	7357	2544.608941692172	1
0	7362	2545.070144530903	0
0	7397	2556.224255742832	1
0	7399	2556.405912423584	2
0	7400	2558.053980562717	1
0	7414	2566.847451769946	0
0	7423	2567.524376663929	1
0	7427	2571.266962455014	0
0	7436	2572.914447266507	1
0	7438	2575.891097380713	0
0	7445	2577.844633125242	1
0	7446	2578.653701136275	0
0	7461	2579.85465482385	1
0	7464	2581.3863397394	0
0	7471	2582.845768204815	1
0	7473	2583.016093368104	2
0	7476	2583.309598152026	1
0	7482	2585.378436203824	0
0	7491	2589.90212431901	1
0	7492	2591.411119905289	0
0	7499	2591.83548700052	1
0	7501	2594.704773411908	2
0	7502	2595.508589081777	1
0	7511	2597.801385039013	0
0	7517	2597.909990014837	1
0	7524	2601.887073764187	0
0	7594	2624.833172260846	1
0	7599	2626.828601193792	0
0	7605	2629.573867216318	1
0	7608	2630.757220550074	2
0	7609	2631.689897564189	1
0	7615	2637.421621901759	0
0	7643	2655.998979713753	1
0	7644	2658.391849775845	0
0	7650	2658.449830733031	1
0	7659	2662.45941538554	2
0	7660	2663.712468243816	1
0	7665	2664.002232568861	0
0	7671	2664.787872388678	1
0	7676	2667.502729132845	0
0	7687	2667.970494032414	1
0	7690	2671.210156858465	2
0	7691	2671.244691506982	1
0	7697	2671.386435270357	0
0	7732	2685.336566676276	1
0	7741	2691.900306828052	0
0	7753	2693.443616077158	1
0	7755	2693.847598520897	2
0	7763	2696.155644402631	3
0	7766	2696.763845073598	2
0	7771	2699.927436130884	1
0	7779	2704.774332609019	0
0	7796	2708.202508289326	1
0	7797	2709.601921355709	0
0	7803	2710.187024404065	1
0	7806	2711.29944754329	2
0	7808	2711.316544126173	3
0	7810	2711.652158499614	4
0	7812	2711.844429767255	5
0	7815	2712.498974539953	6
0	7816	2713.794014301537	5
0	7822	2715.304626435964	4
0	7829	2719.624154354774	3
0	7835	2720.405669410544	2
0	7840	2720.41019023948	1
0	7846	2721.232297875028	0
0	7863	2722.788412863833	1
0	7865	2723.01677264917	2
0	7870	2724.259797160686	1
0	7877	2726.619956787399	2
0	7878	2727.163838276781	1
0	7883	2727.618453024827	0
0	7890	2728.754486891654	1
0	7892	2729.289901570273	2
0	7893	2729.529422496464	1
0	7900	2730.066780973238	2
0	7902	2731.754818544323	1
0	7907	2732.910578217842	0
0	7911	2734.272722527747	1
0	7915	2734.776647117111	2
0	7921	2736.946660065814	3
0	7922	2737.102339386748	2
0	7926	2738.778203055899	3
0	7928	2741.104517438342	4
0	7935	2744.746918154863	3
0	7941	2745.468889722951	4
0	7943	2746.913827448892	3
0	7952	2748.44786000098	2
0	7958	2749.124507499116	3
0	7960	2749.285367162643	2
0	7966	2749.962271901125	3
0	7968	2753.513391742697	2
0	7974	2753.578733185384	3
0	7975	2753.586429806176	2
0	7979	2753.624900654917	3
0	7983	2754.867558950749	4
0	7985	2755.377453032478	5
0	7986	2755.606546788508	4
0	7992	2758.521747718255	5
0	7995	2759.043157110805	6
0	7997	2760.134177334702	7
0	8000	2762.812528503535	8
0	8002	2763.676654010407	9
0	8005	2768.776725251449	8
0	8010	2769.237338178647	7
0	8017	2773.546891384897	6
0	8023	2775.707119630488	5
0	8029	2777.505290973324	4
0	8035	2777.541991106419	5
0	8038	2778.662866214125	4
0	8044	2780.389115938164	5
0	8046	2781.233096953944	6
0	8048	2782.194814330156	5
0	8053	2782.360068478764	4
0	8059	2785.351991512945	5
0	8063	2789.194867519455	6
0	8065	2790.719812427577	5
0	8073	2792.087441375368	6
0	8074	2794.410400301863	5
0	8079	2794.487260428121	4
0	8084	2795.226543766645	3
0	8093	2802.560079867042	2
0	8098	2803.724066450994	1
0	8106	2805.67494824963	2
0	8107	2805.898728180677	1
0	8112	2806.097057193992	0
0	8116	2806.301407843327	1
0	8120	2808.08105067258	2
0	8127	2809.17903641362	3
0	8128	2810.263767463887	2
0	8134	2810.681969500401	3
0	8135	2810.853644536253	2
0	8141	2815.86299850824	3
0	8145	2816.340749384168	4
0	8148	2822.239181346661	3
0	8153	2822.639514632374	2
0	8158	2823.754170598453	1
0	8163	2826.028921208704	0
0	8167	2826.904628033404	1
0	8170	2828.922939501395	0
0	8178	2833.703764290787	1
0	8181	2834.607669637172	0
0	8188	2837.964537604055	1
0	8190	2839.516709325966	0
0	8196	2839.657887239345	1
0	8198	2840.344214042288	0
0	8210	2841.316843512863	1
0	8211	2842.1488180035	0
0	8223	2845.905677246121	1
0	8225	2851.757649976408	2
0	8227	2853.324853338366	3
0	8233	2857.179478612417	4
0	8234	2857.248036567307	3
0	8245	2863.98025073134	4
0	8246	2866.45432184913	3
0	8252	2872.546862076181	2
0	8257	2872.730734084001	1
0	8263	2873.360686253968	0
0	8288	2879.836845059786	1
0	8295	2884.863877353151	0
0	8314	2889.557052089655	1
0	8315	2893.503097606115	0
0	8322	2894.047936859192	1
0	8324	2894.672534454496	0
0	8346	2903.395761106369	1
0	8353	2909.819962614248	0
0	8360	2912.421733156752	1
0	8364	2915.555471296424	0
0	8381	2919.014388904488	1
0	8386	2919.993664255767	0
0	8395	2922.163198154624	1
0	8396	2922.732950564196	0
0	8403	2923.640923479722	1
0	8407	2928.105973249698	2
0	8408	2928.589808609957	1
0	8414	2929.065337317315	2
0	8416	2929.079172071075	3
0	8417	2929.504429169289	2
0	8424	2932.251156298779	1
0	8429	2932.999003014203	0
0	8433	2934.549720034039	1
0	8435	2935.394267692943	2
0	8437	2936.005676926585	3
0	8449	2944.570860765427	4
0	8450	2946.515122234241	3
0	8455	2947.424924380557	2
0	8460	2949.330132894138	1
0	8466	2950.675379204077	0
0	8488	2960.259156598126	1
0	8489	2960.374170877451	0
0	8516	2972.837590742009	1
0	8522	2974.530453492397	2
0	8523	2975.420059806816	1
0	8528	2976.102974884954	0
0	8537	2979.727038626274	1
0	8539	2980.808023983347	2
0	8544	2982.614807324276	3
0	8546	2987.325064888274	2
0	8552	2987.952691052213	1
0	8557	2988.27990934277	0
0	8565	2988.888572964261	1
0	8566	2989.100826387293	0
0	8572	2989.729441387321	1
0	8574	2990.473442418261	0
0	8581	2992.581812305654	1
0	8583	2993.137002696323	2
0	8585	2993.797922931916	3
0	8589	2999.443057126982	4
0	8594	3003.943424134403	3
0	8599	3004.499026600437	2
0	8607	3005.757852970968	3
0	8613	3008.079733201975	4
0	8614	3008.550037589764	3
0	8620	3011.207948316932	2
0	8625	3011.427495150889	1
0	8629	3011.484856898517	2
0	8636	3014.970960782489	3
0	8640	3018.043458563127	4
0	8642	3018.06786552532	5
0	8644	3018.72970792525	6
0	8646	3019.128781204086	5
0	8652	3019.655377263482	6
0	8654	3025.590306515779	5
0	8660	3027.179800309262	4
0	8667	3029.711216326089	3
0	8673	3030.191262894923	4
0	8679	3032.069896488493	5
0	8680	3032.138827972271	4
0	8686	3033.042428139139	3
0	8696	3037.401020963475	4
0	8697	3038.978011131252	3
0	8705	3041.961041785865	2
0	8710	3043.659336133043	1
0	8717	3044.396545953465	2
0	8718	3044.681886735633	1
0	8726	3046.066870426547	0
0	8734	3049.14651458749	1
0	8735	3050.337172811169	0
0	8753	3051.572249036243	1
0	8760	3055.803165518294	0
0	8808	3073.38200185529	1
0	8811	3076.668490126876	0
0	8832	3082.831797474802	1
0	8836	3085.437921646468	2
0	8838	3086.773906134955	3
0	8840	3087.232105309204	4
0	8841	3088.86308908412	3
0	8850	3093.249186071742	4
0	8858	3094.653453402517	5
0	8860	3096.912907294319	6
0	8862	3097.126992486583	7
0	8864	3098.071376116623	8
0	8865	3098.606452046915	7
0	8870	3101.450307430169	6
0	8878	3103.463227484185	7
0	8881	3105.435424105368	8
0	8883	3108.484585735307	9
0	8884	3109.070482253248	8
0	8891	3111.340424033108	9
0	8892	3112.343801960784	8
0	8900	3112.708828036277	7
0	8908	3112.915797435724	8
0	8909	3115.688606339291	7
0	8919	3118.930533945784	6
0	8925	3119.802038368524	5
0	8930	3119.978663322761	4
0	8936	3120.905809809052	3
0	8941	3121.441337068248	2
0	8945	3121.948484270182	3
0	8947	3122.294185469511	4
0	8950	3124.190637800975	3
0	8957	3126.65791047986	2
0	8963	3127.365534383223	1
0	8970	3128.086107627674	2
0	8971	3131.607918734487	1
0	8977	3132.161038755156	2
0	8980	3133.628760236092	3
0	8981	3134.031462287844	2
0	8988	3137.346975592688	1
0	8993	3139.307680200476	0
0	9011	3142.0037996969	1
0	9014	3143.530790198553	0
0	9028	3145.776726523502	1
0	9029	3146.500504663173	0
0	9036	3151.308197566709	1
0	9043	3158.968770533052	0
0	9070	3167.184383536688	1
0	9071	3167.64858915289	0
0	9082	3168.617726313933	1
0	9087	3172.74646649954	0
0	9093	3174.592791929105	1
0	9094	3175.135510218093	0
0	9110	3179.699908312173	1
0	9111	3179.908391262256	0
0	9128	3185.726101966697	1
0	9130	3185.736643009309	2
0	9133	3188.546372961633	1
0	9138	3189.072250080374	0
0	9144	3190.506457326335	1
0	9147	3192.02362467699	2
0	9148	3192.193214699897	1
0	9160	3200.674265201203	0
0	9166	3201.073298060173	1
0	9167	3201.945502631064	0
0	9173	3202.112633245786	1
0	9174	3202.708861561169	0
0	9181	3214.955128802205	1
0	9182	3215.093915555101	0
0	9205	3227.474129802118	1
0	9206	3227.635666663744	0
0	9220	3235.611372860334	1
0	9222	3236.056975504623	2
0	9228	3239.137664088994	1
0	9234	3241.443299465454	0
0	9245	3243.737745069398	1
0	9250	3245.893405244037	2
0	9251	3247.012499313684	1
0	9257	3247.701071386709	0
0	9285	3255.430258352681	1
0	9287	3256.158925346335	2
0	9289	3256.818492958379	3
0	9293	3260.08272720598	4
0	9294	3261.05209788383	3
0	9303	3262.578829506437	4
0	9305	3265.07538221849	5
0	9307	3265.812472248284	6
0	9308	3265.887098009941	5
0	9314	3268.513899707229	4
0	9323	3271.65631937759	5
0	9326	3273.703447872414	4
0	9332	3274.920928643683	5
0	9339	3276.833531246472	6
0	9340	3276.946159936638	5
0	9348	3278.665241474341	4
0	9355	3279.004414539123	5
0	9356	3284.50081725794	4
0	9361	3285.472719987384	3
0	9368	3286.050117782953	4
0	9369	3286.077638521378	3
0	9374	3286.642049175817	2
0	9384	3288.358335176593	3
0	9388	3291.010138443092	4
0	9392	3294.596837511145	5
0	9393	3295.080414583133	4
0	9399	3296.40555980652	3
0	9405	3298.081801327019	2
0	9410	3298.369141920024	1
0	9416	3299.713948102508	2
0	9418	3299.811262284619	3
0	9422	3301.100871043508	4
0	9427	3303.32195906171	3
0	9431	3304.932038750409	4
0	9433	3305.772049945924	5
0	9435	3309.0647687746	6
0	9440	3312.94460309045	5
0	9445	3314.647629339904	4
0	9452	3317.33065560484	3
0	9457	3318.248046653496	2
0	9462	3318.303693101209	1
0	9466	3322.495940669102	2
0	9469	3324.692397805337	1
0	9474	3327.106813350643	0
0	9482	3329.1087508154	1
0	9485	3329.153817256718	0
0	9489	3332.619622183349	1
0	9493	3333.828574258074	2
0	9494	3336.462599385952	1
0	9502	3341.879939611303	0
0	9531	3351.362736904485	1
0	9532	3351.509596667824	0
0	9542	3353.20648814103	1
0	9544	3353.265125273508	0
0	9576	3361.948549170021	1
0	9580	3366.2598363519	2
0	9582	3367.465811358486	3
0	9584	3367.52035899928	4
0	9585	3367.824117711025	3
0	9590	3368.629124411467	2
0	9596	3369.985042093331	3
0	9597	3370.710306903093	2
0	9604	3372.107519943564	1
0	9610	3372.93820764101	0
0	9630	3377.474536374102	1
0	9635	3379.16241993821	0
0	9641	3380.458713466814	1
0	9643	3380.591010399679	0
0	9662	3387.183943702701	1
0	9663	3387.52641644828	0
0	9685	3399.919350064718	1
0	9688	3404.225466114279	0
0	9701	3408.163956466205	1
0	9705	3409.453143197878	2
0	9707	3409.495645608396	3
0	9708	3410.306043770137	2
0	9714	3412.009156561425	3
0	9715	3412.905074745284	2
0	9721	3413.26619319322	3
0	9727	3414.810927701013	4
0	9731	3416.401889987692	5
0	9732	3417.061248291174	4
0	9739	3418.103311451913	3
0	9744	3419.139611927791	2
0	9748	3419.262169797842	3
0	9750	3419.869454027648	4
0	9758	3421.379671479008	5
0	9759	3421.753030018589	4
0	9763	3421.815123736788	5
0	9765	3424.720418023702	6
0	9768	3425.483385004163	5
0	9773	3428.147169238677	4
0	9777	3428.20046439681	5
0	9779	3428.969159041419	6
0	9783	3432.063243834483	5
0	9788	3432.115447864743	4
0	9794	3434.223884437685	3
0	9804	3434.85100791087	2
0	9809	3435.52020145489	1
0	9821	3442.228802496911	2
0	9822	3443.045456158316	1
0	9828	3443.325844528734	2
0	9834	3448.33063808085	1
0	9840	3448.706798416169	0
0	9846	3449.684141799787	1
0	9848	3451.631975775047	0
0	9861	3454.40018965294	1
0	9863	3456.373954471176	0
0	9870	3458.075020167614	1
0	9871	3458.797535234365	0
0	9887	3464.813825422446	1
0	9888	3468.273826647321	0
0	9894	3471.066954105313	1
0	9895	3472.166145257283	0
0	9923	3479.835848616358	1
0	9926	3480.417590831131	2
0	9928	3480.542062324279	3
0	9931	3482.600902862428	2
0	9936	3482.669558062602	1
0	9941	3482.825610934564	0
0	9945	3482.909008341183	1
0	9950	3486.373725281385	0
0	9961	3491.387915498548	1
0	9965	3493.438346352452	2
0	9966	3493.459884259734	1
0	9972	3495.834976763458	0
0	9987	3498.660459284934	1
0	9990	3499.76952632609	0
0	9996	3500.065371186256	1
0	10001	3500.973439779013	2
0	10003	3501.981998882613	3
0	10004	3503.075408443888	2
0	10010	3503.249123001877	3
0	10012	3504.256060299389	4
0	10015	3506.412923920748	3
0	10020	3507.071216147361	2
0	10027	3510.222952367334	1
0	10033	3512.248997768367	0
0	10060	3519.651092742638	1
0	10063	3520.022306627009	0
0	10080	3524.301692968685	1
0	10082	3527.068501977268	2
0	10084	3527.291103998092	3
0	10088	3529.168879047551	4
0	10089	3532.515788386163	3
0	10095	3533.294216297549	2
0	10101	3534.477056646965	3
0	10102	3534.840890992958	2
0	10106	3534.951399165208	3
0	10109	3536.162552366674	2
0	10114	3537.298140438812	1
0	10118	3537.980413089766	2
0	10122	3540.813964663711	3
0	10123	3540.828332999253	2
0	10130	3543.927565421173	3
0	10131	3544.552461624662	2
0	10140	3547.677307216824	1
0	10147	3551.954171499096	2
0	10148	3552.115731828966	1
0	10154	3552.49301691681	2
0	10157	3556.077937295259	3
0	10158	3556.278119344634	2
0	10164	3558.225967600594	1
0	10170	3562.504903211498	0
0	10208	3576.487214166794	1
0	10210	3576.782338503692	2
0	10214	3577.458863302499	3
0	10216	3578.799822186552	4
0	10218	3579.065653765707	5
0	10220	3580.33438872214	6
0	10221	3580.709664203842	5
0	10226	3580.948262788198	4
0	10232	3581.07759310163	5
0	10235	3581.771961165069	6
0	10238	3583.201166488886	5
0	10243	3584.9172455531	4
0	10251	3587.513693750452	3
0	10256	3587.706550282819	2
0	10267	3597.611984246769	1
0	10273	3600.102370738419	0
0	10280	3600.410120523309	1
0	10281	3601.134183299427	0
0	10305	3606.354190184103	1
0	10306	3608.701048318666	0
0	10322	3611.27217252984	1
0	10323	3611.843364352974	0
0	10341	3616.361117827936	1
0	10345	3618.498709027705	2
0	10346	3619.996114339293	1
0	10353	3621.278211759535	0
0	10375	3626.95127090067	1
0	10378	3629.636852962649	0
0	10386	3632.009971218578	1
0	10387	3632.143738880975	0
0	10393	3632.955599797835	1
0	10397	3637.775097595739	0
0	10403	3637.954016862113	1
0	10404	3638.332476562756	0
0	10423	3641.939400781031	1
0	10426	3643.453102651939	0
0	10438	3647.281761241532	1
0	10439	3648.377327866826	0
0	10454	3650.992903455951	1
0	10456	3651.63702388618	2
0	10459	3653.879965114347	1
0	10467	3655.27948886868	0
0	10480	3660.009726837914	1
0	10483	3660.291152720773	0
0	10502	3664.988064578887	1
0	10503	3667.843809735225	0
0	10509	3668.178183956996	1
0	10511	3668.976845343905	0
0	10522	3669.639791918783	1
0	10528	3675.298317527812	0
0	10551	3686.220621387944	1
0	10553	3689.501694605739	2
0	10555	3690.862046183989	3
0	10558	3691.717654224446	2
0	10564	3693.228189669093	1
0	10570	3693.589521696571	2
0	10572	3694.33291202979	1
0	10578	3695.061655289144	2
0	10581	3697.534155814322	1
0	10588	3697.808455841012	2
0	10590	3699.536646949791	1
0	10595	3699.906890227714	0
0	10601	3701.907785662341	1
0	10602	3702.115078602025	0
0	10608	3702.366641670199	1
0	10610	3703.466823025513	2
0	10614	3706.782774681502	3
0	10616	3707.045093285487	4
0	10618	3707.414409876751	5
0	10621	3708.570426586267	4
0	10626	3708.935016493518	3
0	10632	3710.479864382385	4
0	10634	3711.353238681537	5
0	10636	3713.891550680413	4
0	10641	3714.155526893617	3
0	10647	3715.409177463148	2
0	10653	3715.440245634024	3
0	10654	3716.023366127146	2
0	10658	3717.323514165255	3
0	10661	3721.7993066181	2
0	10667	3723.352625604109	3
0	10670	3725.339565243525	2
0	10678	3728.384209757441	3
0	10680	3728.846429326493	4
0	10683	3729.225821188443	3
0	10689	3730.143818854481	4
0	10698	3736.453590818185	3
0	10704	3738.443398292566	4
0	10710	3747.825498183639	3
0	10719	3750.086737463949	4
0	10721	3751.919961485772	5
0	10725	3755.282613930138	6
0	10728	3755.9967353908	5
0	10734	3756.2376402931	4
0	10739	3756.51154409797	3
0	10745	3756.558268082779	4
0	10746	3759.380777021742	3
0	10750	3761.556510124699	4
0	10753	3762.006611425076	3
0	10759	3762.790073430556	4
0	10760	3763.267360439211	3
0	10767	3769.10538112473	4
0	10769	3769.607243844299	3
0	10775	3775.528542075945	2
0	10781	3775.604541294892	3
0	10782	3776.45074339262	2
0	10789	3777.923270264415	3
0	10792	3778.497433042243	4
0	10794	3778.554647634505	5
0	10797	3779.097736257334	4
0	10802	3779.207283308735	3
0	10809	3779.923501058313	4
0	10810	3780.980776285736	3
0	10815	3781.056557143487	2
0	10821	3784.170515084528	1
0	10827	3785.764810661307	0
0	10840	3786.168635695049	1
0	10842	3786.978857103314	2
0	10845	3788.081540644503	1
0	10851	3789.946857754056	0
0	10867	3790.954609729086	1
0	10871	3793.871308500828	2
0	10872	3794.35968196516	1
0	10878	3794.428752046761	2
0	10890	3800.424161730692	3
0	10891	3800.844702984075	2
0	10896	3800.850648486841	1
0	10903	3804.896778902632	0
0	10912	3806.128844772984	1
0	10914	3808.909664006185	2
0	10916	3808.94811580729	3
0	10917	3811.23821753336	2
0	10923	3812.858717147423	1
0	10929	3813.926121913746	0
0	10940	3815.977540691751	1
0	10942	3816.704430275748	0
0	10949	3817.496279300984	1
0	10952	3820.539791988919	0
0	10961	3821.286981145727	1
0	10963	3823.314661455756	2
0	10965	3823.451907947438	3
0	10968	3825.071077025428	2
0	10973	3825.487583867673	1
0	10980	3826.10791345526	2
0	10981	3826.11444710922	1
0	10987	3826.885178957324	0
0	10996	3827.251136883515	1
0	10999	3827.598582192967	0
0	11015	3832.236832477533	1
0	11017	3832.897577380413	2
0	11019	3834.742973218964	3
0	11025	3840.237515920179	4
0	11027	3840.409681100667	5
0	11029	3840.427012574339	6
0	11033	3842.296020657685	7
0	11036	3848.548353582458	6
0	11042	3848.985254059319	7
0	11043	3849.201240318793	6
0	11048	3849.899230915812	5
0	11053	3851.484370586998	4
0	11060	3854.183616886196	3
0	11068	3859.669051310757	4
0	11069	3859.712977741862	3
0	11075	3859.961693981694	4
0	11078	3863.071630919083	3
0	11084	3863.887353326073	2
0	11090	3867.915263236067	1
0	11097	3868.148420441208	2
0	11098	3868.161852109063	1
0	11104	3870.072639171365	2
0	11106	3871.279836275286	3
0	11108	3871.603141221108	2
0	11114	3874.348622060938	1
0	11120	3874.605105122834	0
0	11132	3875.690507190822	1
0	11133	3877.788356979371	0
0	11144	3878.471304026305	1
0	11146	3880.98243131079	0
0	11163	3885.76489262999	1
0	11167	3888.452857174514	2
0	11169	3889.066802458501	3
0	11175	3890.313171254787	4
0	11180	3890.971665809168	3
0	11186	3893.610995959299	2
0	11192	3893.747285336667	3
0	11194	3894.068067897101	4
0	11198	3894.322599658904	5
0	11201	3896.643544034223	6
0	11202	3897.146399791227	5
0	11208	3899.068193475947	6
0	11211	3902.249994486631	7
0	11212	3903.225633046544	6
0	11221	3905.578726276774	7
0	11222	3906.529556305972	6
0	11228	3906.764485265769	7
0	11230	3907.138049376972	6
0	11235	3908.24074100806	5
0	11243	3912.277834002116	6
0	11245	3912.510200147752	7
0	11246	3912.76424296623	6
0	11251	3913.29800603495	5
0	11256	3914.103160044506	4
0	11260	3914.968580636532	5
0	11264	3915.593812925413	6
0	11265	3916.338029603018	5
0	11270	3916.773144537292	4
0	11275	3917.800048925443	3
0	11279	3918.626611452354	4
0	11281	3920.873067154814	5
0	11287	3923.587208493791	6
0	11290	3924.73808297287	7
0	11291	3927.569605342683	6
0	11300	3928.493207364093	5
0	11306	3930.933235956387	4
0	11313	3933.881991794873	3
0	11320	3939.094468244274	4
0	11321	3940.521822887754	3
0	11327	3943.759097873827	2
0	11336	3945.37454963448	3
0	11337	3946.255114484641	2
0	11342	3947.78018182213	1
0	11347	3948.359517561011	0
0	11359	3950.999061599244	1
0	11360	3952.511061198499	0
0	11377	3955.350271152592	1
0	11379	3955.760601095812	0
0	11385	3956.05379925263	1
0	11388	3956.376373566912	2
0	11390	3959.380047719831	3
0	11391	3959.415561505369	2
0	11396	3960.926910495762	1
0	11401	3961.297165760085	0
0	11414	3963.722998062911	1
0	11416	3964.954120504898	0
0	11433	3971.682806406221	1
0	11434	3971.930854441265	0
0	11448	3976.454333860084	1
0	11453	3979.384137981592	0
0	11462	3981.23500122745	1
0	11465	3982.001735242094	0
0	11471	3982.116490580532	1
0	11472	3982.667648847264	0
0	11487	3985.434774239444	1
0	11489	3985.732261219263	2
0	11495	3989.405617841136	1
0	11500	3989.641581690984	0
0	11507	3992.103814627119	1
0	11510	3993.80347659273	0
0	11517	3996.965768435712	1
0	11519	3999.094897560417	0
0	11545	4007.743124617961	1
0	11547	4007.828518351265	2
0	11553	4009.685462941433	1
0	11559	4011.991383177606	0
0	11568	4016.6106242837	1
0	11569	4016.683672104787	0
0	11588	4021.361016110929	1
0	11591	4021.654666258465	0
0	11600	4024.804282950299	1
0	11601	4024.821939226227	0
0	11607	4025.571088528466	1
0	11608	4026.055096789438	0
0	11615	4028.57064050865	1
0	11618	4028.98944312046	2
0	11621	4031.235890305793	1
0	11628	4031.909166312826	2
0	11630	4033.991148797266	3
0	11631	4035.155922869231	2
0	11638	4037.052042083414	3
0	11639	4037.306330020025	2
0	11646	4039.658510124099	3
0	11650	4044.927606958942	4
0	11651	4045.366705510647	3
0	11658	4047.074174288055	4
0	11659	4048.814364163712	3
0	11665	4051.660909025284	2
0	11673	4052.603204517635	1
0	11681	4053.388268971161	0
0	11700	4056.414524303837	1
0	11702	4059.917090638218	2
0	11703	4060.961100642972	1
0	11708	4061.521724759151	0
0	11728	4063.993308043681	1
0	11732	4066.69830725996	2
0	11733	4066.858505372018	1
0	11741	4069.048236158589	0
0	11773	4082.113897713462	1
0	11779	4084.572102588215	2
0	11780	4084.949138529239	1
0	11785	4085.13371247398	0
0	11792	4087.985924382205	1
0	11793	4088.389652802662	0
0	11799	4089.065196024191	1
0	11805	4090.806457273488	2
0	11807	4092.18175318003	1
0	11815	4095.997410009634	0
0	11822	4097.52679072601	1
0	11823	4097.910548372064	0
0	11836	4100.03427442445	1
0	11837	4101.335359960671	0
0	11849	4103.616577209627	1
0	11851	4106.753087426606	2
0	11852	4107.059823889729	1
0	11860	4107.811145051422	2
0	11861	4108.305275545436	1
0	11868	4109.609750169349	2
0	11869	4109.901002721724	1
0	11875	4111.012798961755	2
0	11879	4113.259186286625	1
0	11885	4116.449908737335	0
0	11902	4119.745212405027	1
0	11903	4120.113920951916	0
0	11928	4130.544847161565	1
0	11932	4136.194914094294	2
0	11934	4136.203898829232	3
0	11937	4138.561585342408	2
0	11943	4139.13566390643	3
0	11945	4139.747474145097	4
0	11946	4139.931981742382	3
0	11955	4143.078101225531	2
0	11960	4143.176934033746	1
0	11965	4144.692428400597	0
0	11974	4147.023880244346	1
0	11977	4149.587326872521	0
0	11987	4153.530700990477	1
0	11989	4153.914401417245	2
0	11997	4155.671279337454	3
0	12000	4160.964530443906	2
0	12007	4162.65946934666	3
0	12008	4163.40695900722	2
0	12013	4163.831545838069	1
0	12020	4163.972641825855	2
0	12021	4164.665484702965	1
0	12027	4167.270436703241	0
0	12043	4168.625315786614	1
0	12047	4170.694593347177	2
0	12050	4173.599063821408	1
0	12059	4176.30702402593	2
0	12060	4177.302431209398	1
0	12065	4177.750149693411	0
0	12077	4179.186212698218	1
0	12079	4179.900432217958	2
0	12085	4181.130087704477	1
0	12092	4181.291493912855	0
0	12101	4182.633278239784	1
0	12105	4184.210837211259	2
0	12107	4187.678335999846	3
0	12109	4189.060278853926	4
0	12110	4189.515107554844	3
0	12116	4190.466579573978	2
0	12122	4192.120076325474	1
0	12128	4194.350058445919	2
0	12129	4194.672846608988	1
0	12136	4196.262239110845	2
0	12140	4198.910987984032	3
0	12141	4200.541585663912	2
0	12147	4202.16035652041	1
0	12153	4202.996001258492	2
0	12156	4203.184634372082	1
0	12162	4205.283703267407	0
0	12168	4206.091493127565	1
0	12169	4206.127956228497	0
0	12173	4206.503343170289	1
0	12176	4207.530873648194	0
0	12180	4207.700170709656	1
0	12185	4208.186885314234	0
0	12191	4210.088675761756	1
0	12193	4211.430023933359	0
0	12200	4212.438963786244	1
0	12203	4213.805421510828	0
0	12227	4221.158253916451	1
0	12229	4221.391425286589	2
0	12232	4222.382679061523	1
0	12239	4227.795317884164	0
0	12255	4233.691315264807	1
0	12260	4239.124148889882	0
0	12266	4239.979502761879	1
0	12268	4241.488506326212	2
0	12270	4241.601433686774	3
0	12271	4241.990935100038	2
0	12277	4242.171953131649	3
0	12281	4245.524305831273	4
0	12283	4245.766031518568	5
0	12288	4249.364754317035	4
0	12294	4250.298976250457	5
0	12296	4251.273806085845	4
0	12301	4251.301362860926	3
0	12306	4252.707449159418	2
0	12310	4252.881921485655	3
0	12313	4254.14331986021	2
0	12319	4259.49071620582	3
0	12321	4259.648706648182	4
0	12322	4260.068999028647	3
0	12330	4264.787762003107	2
0	12335	4264.960975105099	1
0	12339	4265.156859089431	2
0	12343	4265.623624366813	3
0	12346	4266.078623175475	2
0	12352	4267.744567358997	3
0	12354	4268.265898836358	4
0	12355	4268.712388842686	3
0	12363	4271.924332469072	4
0	12364	4273.82922610384	3
0	12370	4276.448980132221	4
0	12372	4277.994650363317	3
0	12377	4283.173482443987	2
0	12385	4286.025842562784	3
0	12386	4286.60970647549	2
0	12392	4287.459480902997	3
0	12395	4289.378396919647	4
0	12397	4289.847909078904	3
0	12403	4290.946796137014	2
0	12409	4291.221184924955	3
0	12410	4291.381812047325	2
0	12417	4294.881937410596	1
0	12422	4296.65487019419	0
0	12435	4299.223051734999	1
0	12436	4299.730186979087	0
0	12442	4300.235414585064	1
0	12444	4300.272944849495	2
0	12445	4301.789590193062	1
0	12451	4302.212484596537	2
0	12453	4303.729065778002	3
0	12457	4304.972504003249	4
0	12461	4308.883206287703	5
0	12465	4309.77983709217	4
0	12470	4310.103182588593	3
0	12479	4314.337915960607	2
0	12484	4314.711887249187	1
0	12491	4315.073981176176	2
0	12492	4315.865649798694	1
0	12499	4317.785305714469	0
0	12505	4318.186330087397	1
0	12507	4319.311559903515	2
0	12509	4320.922892933691	3
0	12510	4320.953819009345	2
0	12515	4322.793509278904	1
0	12523	4326.687291047974	2
0	12525	4329.534622629612	3
0	12527	4330.990559846051	4
0	12529	4331.801464873051	5
0	12530	4332.805973440085	4
0	12537	4335.502652474352	5
0	12538	4335.793856353767	4
0	12543	4335.80953922654	3
0	12548	4335.859882646618	2
0	12554	4337.958240023217	3
0	12555	4338.443145384858	2
0	12562	4340.190905484766	1
0	12566	4343.076225413983	2
0	12573	4346.410283004208	1
0	12578	4346.823217971608	0
0	12585	4347.171045181388	1
0	12588	4348.05376911797	2
0	12590	4350.872136523106	3
0	12594	4352.057301357081	4
0	12596	4354.220800035055	5
0	12597	4354.271798628922	4
0	12602	4357.487033627823	3
0	12609	4358.520776212647	2
0	12615	4360.595655071496	1
0	12621	4360.996628834456	2
0	12623	4362.580415998527	1
0	12629	4363.29672171678	2
0	12631	4363.353497539347	3
0	12632	4364.937807175343	2
0	12637	4366.265407728353	1
0	12643	4366.609841817389	2
0	12647	4367.582301805214	3
0	12649	4368.703250640313	2
0	12657	4369.804912136473	3
0	12658	4370.589212401592	2
0	12663	4372.220932336667	1
0	12668	4372.252089455358	0
0	12691	4384.346943548104	1
0	12693	4384.402739174946	2
0	12694	4384.892730753701	1
0	12700	4398.035011684723	0
0	12706	4398.048881714047	1
0	12707	4398.235457045983	0
0	12734	4408.524028539149	1
0	12736	4409.986623469351	2
0	12739	4410.5029610111	1
0	12745	4410.817939227584	2
0	12749	4413.242476595958	3
0	12751	4413.40307625668	4
0	12752	4413.748612054948	3
0	12757	4413.844126342118	2
0	12763	4414.799018901907	1
0	12773	4417.217664587098	2
0	12774	4417.595525422968	1
0	12785	4423.243650006561	0
0	12802	4425.299808927849	1
0	12807	4428.25865408681	0
0	12816	4429.411523758248	1
0	12819	4430.903319958336	0
0	12825	4431.054237075259	1
0	12827	4431.907764852169	0
0	12833	4432.079480201354	1
0	12835	4433.591605398447	0
0	12841	4436.403402246584	1
0	12843	4437.199628913644	0
0	12865	4439.445911506859	1
0	12867	4440.401714388463	2
0	12870	4441.423347321716	1
0	12879	4445.242511830097	2
0	12880	4448.550956888122	1
0	12886	4448.935913870089	2
0	12888	4449.127083789614	3
0	12892	4455.066300258709	4
0	12895	4461.624478463185	3
0	12902	4462.393810502306	4
0	12906	4466.682201143227	3
0	12911	4466.82601141132	2
0	12921	4471.922574335648	1
0	12930	4474.723736063379	0
0	12941	4474.984738635296	1
0	12942	4475.602788019602	0
0	12949	4476.970532307096	1
0	12954	4478.781964733508	2
0	12955	4481.947481098472	1
0	12961	4482.550335534304	0
0	12973	4485.679361238437	1
0	12975	4485.72111331252	2
0	12979	4491.001310154148	3
0	12982	4492.746431066193	2
0	12990	4493.609276863662	3
0	12991	4493.8373937647	2
0	12998	4495.779232893354	1
0	13006	4497.390636978255	0
0	13012	4497.71471089943	1
0	13013	4498.145703119869	0
0	13023	4500.267097886089	1
0	13028	4502.315460060104	2
0	13030	4502.822056056795	3
0	13031	4504.37190175208	2
0	13040	4506.150411725793	1
0	13046	4506.646171153552	2
0	13048	4508.666277701789	1
0	13055	4509.439219642916	0
0	13063	4511.849621937289	1
0	13064	4512.835601868895	0
0	13078	4514.590857092397	1
0	13080	4514.821976817347	2
0	13089	4519.492730160146	1
0	13095	4520.457022803612	0
0	13128	4531.845053489619	1
0	13132	4532.154884380277	2
0	13135	4535.111809864932	1
0	13141	4536.327709270152	0
0	13157	4538.749487439065	1
0	13160	4539.740458723524	0
0	13167	4540.49031534053	1
0	13169	4540.691463089009	2
0	13170	4541.237084800511	1
0	13177	4542.155736889835	2
0	13178	4542.719235389934	1
0	13187	4545.559539369105	0
0	13202	4550.030271900687	1
0	13204	4552.87294859112	2
0	13206	4554.613420786255	3
0	13210	4557.368015880443	4
0	13211	4560.996405240313	3
0	13216	4561.060418127018	2
0	13222	4561.429461857458	1
0	13227	4561.606166771791	0
0	13238	4564.985649559814	1
0	13240	4565.171661186252	2
0	13241	4565.637851657203	1
0	13251	4568.497681337904	2
0	13252	4571.439869604638	1
0	13258	4574.741315039021	0
0	13271	4576.765534254876	1
0	13272	4576.882684827747	0
0	13283	4578.84655654497	1
0	13285	4579.090244600639	2
0	13291	4580.70909185168	1
0	13298	4586.707059584365	2
0	13299	4586.921825872013	1
0	13309	4588.736820593825	2
0	13312	4593.583311180208	1
0	13318	4593.898013528773	2
0	13320	4594.759881450026	3
0	13321	4595.358833128525	2
0	13328	4596.964062311081	3
0	13331	4597.621358390026	2
0	13338	4598.36970028308	1
0	13345	4600.496865473923	2
0	13347	4600.603892448253	3
0	13350	4601.267957371292	2
0	13357	4603.260073721541	3
0	13359	4605.320164953488	4
0	13362	4606.724050971369	3
0	13367	4608.32826069688	2
0	13373	4608.470338168147	3
0	13375	4610.227508035625	2
0	13381	4610.313941494019	3
0	13384	4610.913421401008	4
0	13386	4611.207473709859	5
0	13387	4611.509792379787	4
0	13392	4611.768579556481	3
0	13397	4613.703367952513	2
0	13404	4615.712938877298	1
0	13408	4616.133356702148	2
0	13410	4616.966515299565	3
0	13413	4617.881833516475	2
0	13418	4618.560387948951	1
0	13423	4619.879431946442	0
0	13443	4624.073828795801	1
0	13451	4626.897270470515	0
0	13464	4629.412302279621	1
0	13472	4631.369825003545	2
0	13474	4631.563416261007	3
0	13475	4636.924847096747	2
0	13480	4638.188769441824	1
0	13486	4639.06726273704	0
0	13514	4650.17879958985	1
0	13516	4651.319598166223	2
0	13520	4652.018108684512	3
0	13521	4652.080891456049	2
0	13531	4653.963900565693	1
0	13538	4654.871869329959	2
0	13539	4655.679466994103	1
0	13547	4662.232121289631	0
0	13559	4664.649936624371	1
0	13560	4665.946616180219	0
0	13613	4685.984416989922	1
0	13615	4686.468292479642	2
0	13616	4687.969974639382	1
0	13622	4688.037230535095	2
0	13624	4688.056021563882	3
0	13629	4691.176920476585	4
0	13630	4691.904532421008	3
0	13638	4693.554223718871	2
0	13647	4695.95223394438	1
0	13653	4696.766846332473	2
0	13656	4703.054022464082	1
0	13662	4704.641963092362	0
0	13675	4708.416595719473	1
0	13677	4708.6453136511	2
0	13679	4709.215382123223	1
0	13687	4711.254312161656	2
0	13690	4712.803921598652	3
0	13694	4715.70886814019	4
0	13695	4716.157393057066	3
0	13702	4716.466640172028	2
0	13708	4721.219982916134	1
0	13713	4722.922066509882	0
0	13721	4726.539308057834	1
0	13723	4730.731443457374	2
0	13724	4734.090139421506	1
0	13730	4734.565344027643	2
0	13731	4735.249755002498	1
0	13737	4735.646901581616	2
0	13738	4737.274071947293	1
0	13743	4737.529906460805	0
0	13747	4738.674969282931	1
0	13749	4739.21083924542	2
0	13753	4739.608106782663	3
0	13755	4740.16044206868	4
0	13761	4741.91008751707	5
0	13764	4743.834028686471	4
0	13769	4745.716291540211	3
0	13777	4747.667320647826	4
0	13778	4750.997634528285	3
0	13784	4754.045224251152	2
0	13791	4757.772939537932	1
0	13799	4761.419994277654	2
0	13800	4762.14292114949	1
0	13808	4766.160969011685	0
0	13840	4773.176314175222	1
0	13842	4773.752111290204	2
0	13844	4773.85269194694	3
0	13845	4774.595012665888	2
0	13850	4774.655920008224	1
0	13855	4775.563091740831	0
0	13859	4775.831848831514	1
0	13865	4778.622957954066	2
0	13871	4779.568490881101	3
0	13872	4780.00373619234	2
0	13880	4782.748849909514	3
0	13882	4783.092099940816	4
0	13890	4786.98511978451	3
0	13897	4788.388924787165	4
0	13898	4788.678848853896	3
0	13906	4795.683260231549	4
0	13907	4796.059585231959	3
0	13912	4798.94523915113	2
0	13917	4799.481560720901	1
0	13921	4801.503170647081	2
0	13924	4802.693482352163	1
0	13931	4803.569558830642	0
0	13960	4820.349061047254	1
0	13963	4821.35933526861	0
0	13980	4828.005413198836	1
0	13984	4830.547289201516	2
0	13986	4830.86664280478	3
0	13987	4830.88370077193	2
0	13993	4831.669955687669	3
0	13994	4832.64791527745	2
0	14001	4833.921755471178	1
0	14007	4838.532075626431	2
0	14009	4839.116626815971	3
0	14013	4840.441269031793	4
0	14014	4844.289739003	3
0	14020	4848.092776491758	2
0	14026	4848.672830827739	3
0	14028	4849.077167713088	4
0	14030	4849.882972502083	5
0	14032	4850.56217410805	6
0	14035	4853.199379821952	7
0	14036	4854.608623366874	6
0	14042	4854.902947685871	5
0	14049	4855.890326135979	4
0	14054	4857.800146191362	3
0	14059	4858.052639739592	2
0	14064	4859.67920338011	1
0	14070	4862.18599013745	2
0	14072	4863.261128281575	3
0	14074	4864.904741324484	4
0	14079	4870.370441685719	5
0	14080	4870.829796792918	4
0	14085	4874.878889342367	3
0	14092	4877.748600782331	2
0	14098	4878.1984122679	3
0	14101	4879.984140041486	4
0	14107	4880.858237579257	5
0	14111	4884.138390608649	4
0	14117	4884.429661164703	5
0	14118	4885.113935847433	4
0	14124	4885.489478495887	5
0	14125	4886.394615918032	4
0	14133	4889.009930183423	5
0	14136	4892.440458743594	4
0	14141	4892.803424014315	3
0	14146	4893.660991683881	2
0	14152	4894.740366671814	1
0	14161	4895.711616298952	2
0	14163	4895.758104086159	3
0	14164	4896.315814280663	2
0	14174	4903.113466490142	3
0	14180	4905.320282086936	4
0	14181	4905.628748680888	3
0	14187	4906.001471112284	4
0	14189	4907.605300701801	5
0	14190	4908.650766961025	4
0	14201	4918.003935640901	3
0	14208	4922.056431910945	2
0	14212	4922.887032147438	3
0	14214	4923.411322797031	4
0	14217	4926.638231853629	3
0	14224	4931.938720089463	2
0	14236	4936.908912269146	3
0	14240	4938.953533817633	2
0	14247	4941.643253336973	1
0	14251	4942.630407242824	2
0	14256	4946.651612760744	1
0	14266	4950.507883745625	2
0	14267	4952.207631568486	1
0	14271	4952.693318293866	2
0	14275	4956.114334864465	3
0	14279	4959.18671431719	2
0	14288	4962.464844686999	1
0	14293	4962.793310223379	0
0	14305	4963.992677078884	1
0	14308	4965.884707238078	2
0	14310	4966.873973854821	3
0	14311	4972.034824632052	2
0	14317	4973.914164102953	1
0	14323	4976.63982571278	0
0	14338	4979.776316439909	1
0	14339	4979.796346549047	0
0	14371	4989.794069897234	1
0	14372	4990.267631381695	0
0	14399	4997.350008547586	1
0	14400	4997.695115685046	0
0	14406	4998.250243549632	1
0	14407	4999.858437648919	0
0	14413	5003.041517055226	1
0	14415	5004.989405413282	2
0	14418	5005.353800629885	1
0	14425	5008.962649636765	2
0	14427	5010.019217892022	3
0	14428	5013.637955556259	2
0	14433	5014.591014561056	1
0	14439	5018.294480558917	0
0	14448	5018.839329115758	1
0	14457	5021.153241189378	2
0	14459	5021.650934682755	3
0	14460	5021.839791173534	2
0	14465	5022.065331967435	1
0	14473	5026.314775757819	2
0	14475	5027.064230654518	3
0	14476	5028.478539098393	2
0	14483	5029.293634014936	3
0	14484	5029.675470470402	2
0	14490	5030.82790032786	3
0	14494	5034.530139882961	2
0	14501	5037.079819073564	3
0	14502	5037.194248256771	2
0	14509	5038.567761171164	3
0	14510	5038.864948564096	2
0	14516	5039.606921066422	3
0	14517	5040.97680936224	2
0	14523	5042.313710687818	1
0	14529	5048.411363683612	2
0	14534	5051.711568847313	1
0	14539	5051.848512440042	0
0	14553	5055.261353633529	1
0	14554	5055.453168961886	0
0	14576	5059.371229380738	1
0	14577	5061.081183160432	0
0	14584	5062.159928232306	1
0	14587	5062.368322411523	0
0	14597	5069.002650928237	1
0	14599	5070.056509885278	2
0	14601	5070.94130956806	3
0	14604	5072.772471691809	2
0	14609	5072.973772148497	1
0	14619	5077.566019553889	2
0	14620	5077.806395222511	1
0	14627	5081.933612430061	0
0	14639	5082.93986715905	1
0	14641	5083.918212286964	0
0	14647	5084.085805235596	1
0	14648	5084.468873833609	0
0	14654	5085.164224051398	1
0	14655	5085.400323096863	0
0	14659	5085.940528702486	1
0	14662	5087.599280688801	0
0	14675	5094.021986448258	1
0	14677	5095.418945369906	0
0	14684	5098.147683899386	1
0	14685	5100.058917142077	0
0	14696	5100.749255201043	1
0	14698	5102.834124395295	0
0	14707	5106.521135952721	1
0	14709	5108.619335431746	2
0	14711	5111.031547470582	3
0	14712	5114.668518249155	2
0	14720	5117.704171734007	1
0	14725	5118.220790113804	0
0	14744	5119.491363395895	1
0	14745	5119.621013926971	0
0	14756	5121.154801052729	1
0	14757	5121.541539554289	0
0	14768	5124.414121858552	1
0	14769	5124.864488706488	0
0	14784	5129.4485895263	1
0	14789	5131.847251019878	0
0	14795	5132.624505893931	1
0	14798	5133.323769869174	2
0	14801	5136.683541351309	1
0	14810	5138.845857801201	2
0	14811	5138.915504558775	1
0	14820	5140.175949204546	0
0	14827	5141.462167764956	1
0	14829	5141.667173275203	0
0	14835	5143.331860285159	1
0	14837	5143.881867903842	2
0	14839	5145.466889567435	3
0	14844	5148.919051354472	4
0	14845	5152.438712775487	3
0	14851	5153.323018593374	2
0	14857	5153.818955413168	3
0	14858	5154.078771039858	2
0	14866	5157.527021361676	3
0	14867	5158.471346449448	2
0	14875	5160.256082760465	1
0	14883	5162.882719163047	2
0	14884	5164.211665230867	1
0	14890	5167.558417023273	0
0	14905	5169.920617280897	1
0	14907	5170.728825406728	2
0	14909	5172.580067739368	3
0	14912	5175.413703776361	2
0	14919	5176.349976310238	3
0	14921	5177.240903725342	4
0	14923	5177.818645540964	5
0	14924	5178.700874399072	4
0	14930	5178.800325739661	3
0	14937	5184.104962956736	2
0	14943	5184.43182817361	3
0	14945	5186.710340379846	2
0	14950	5186.827139383617	1
0	14955	5188.774041811069	0
0	14975	5195.606528486133	1
0	14976	5198.300063346021	0
0	14994	5203.959009599905	1
0	14996	5203.960581900361	2
0	14997	5204.13666409577	1
0	15005	5206.815198487887	0
0	15041	5225.618920977866	1
0	15043	5227.682962342684	2
0	15044	5227.845850107761	1
0	15052	5233.556099830801	0
0	15093	5250.113965739	1
0	15094	5251.39167896615	0
0	15111	5257.749168133679	1
0	15112	5257.864498462984	0
0	15121	5258.376651167701	1
0	15123	5258.645446630543	2
0	15128	5262.771128511778	1
0	15134	5264.629296604853	2
0	15137	5264.933627750325	1
0	15145	5270.280913784282	0
0	15158	5278.146542536016	1
0	15160	5280.198686105166	2
0	15161	5281.329568064694	1
0	15167	5281.931907014921	0
0	15186	5285.977806489248	1
0	15188	5286.369780017593	2
0	15189	5287.743550156586	1
0	15196	5288.301199426996	2
0	15197	5291.153303452711	1
0	15204	5291.947892750985	2
0	15205	5292.010119042323	1
0	15216	5294.00771372337	2
0	15218	5299.569065092657	3
0	15219	5300.236406678238	2
0	15224	5300.915061791512	1
0	15230	5301.084222521952	2
0	15234	5302.494117642517	3
0	15235	5304.362725527387	2
0	15241	5306.156285527741	1
0	15251	5309.679639261865	0
0	15275	5319.919922659227	1
0	15281	5323.074999949787	2
0	15282	5324.46870977834	1
0	15288	5325.447387565797	2
0	15293	5325.975177056381	3
0	15294	5329.829905963923	2
0	15299	5329.867528035772	1
0	15305	5330.61909534051	0
0	15323	5336.673099485029	1
0	15325	5338.601388552985	2
0	15326	5339.148526338307	1
0	15332	5344.098857332182	0
0	15366	5354.812688821462	1
0	15367	5355.163413843412	0
0	15385	5358.714258360335	1
0	15386	5359.453951447163	0
0	15392	5361.451137176725	1
0	15393	5362.017896855757	0
0	15397	5362.028331425428	1
0	15405	5366.494056101089	2
0	15407	5367.199899579086	3
0	15409	5367.330247907378	4
0	15412	5369.690082244094	3
0	15417	5370.258868146045	2
0	15423	5371.966724490846	1
0	15430	5384.196961673432	0
0	15436	5385.133625648328	1
0	15437	5386.706519689809	0
0	15445	5388.155031233327	1
0	15452	5390.390807345479	0
0	15466	5393.047482559785	1
0	15469	5394.426890502659	0
0	15482	5398.994410825384	1
0	15484	5400.988301506327	0
0	15494	5403.759080260744	1
0	15495	5407.44698809042	0
0	15502	5409.470433926827	1
0	15504	5410.763387355139	2
0	15509	5412.542620283221	1
0	15516	5414.641659366304	2
0	15519	5417.830188349231	1
0	15529	5418.741065127966	2
0	15531	5418.9795384806	3
0	15533	5419.444578740662	2
0	15540	5420.789101768286	3
0	15541	5422.697099506308	2
0	15548	5424.356320252598	1
0	15553	5425.32318799557	0
0	15557	5425.605074824225	1
0	15561	5429.273035571512	0
0	15601	5439.603344738232	1
0	15602	5439.844955765596	0
0	15608	5440.564378027022	1
0	15611	5440.959379246167	2
0	15614	5441.588271977651	3
0	15615	5441.731609771796	2
0	15624	5446.617992514142	3
0	15625	5448.204851835666	2
0	15631	5449.296077195057	1
0	15639	5450.626735794019	2
0	15641	5454.510435106989	1
0	15649	5457.817954485818	0
0	15660	5460.267067893942	1
0	15661	5460.787498996432	0
0	15667	5461.23444044643	1
0	15670	5462.122071601748	2
0	15676	5464.90191764472	3
0	15681	5466.689905580927	2
0	15688	5467.473120634778	1
0	15697	5468.484561538133	2
0	15703	5473.073906199652	3
0	15704	5474.315812372424	2
0	15710	5475.552438562743	1
0	15718	5475.843962181915	2
0	15720	5476.543358943111	3
0	15721	5476.821534804465	2
0	15727	5477.292758084991	3
0	15732	5486.244747105342	2
0	15738	5486.888753214043	1
0	15744	5490.300114676894	0
0	15775	5501.528918171753	1
0	15777	5501.791761940114	2
0	15779	5501.886644844638	3
0	15780	5502.901244768914	2
0	15785	5503.466947723709	1
0	15790	5504.695855781726	0
0	15811	5511.644684454207	1
0	15816	5512.948491936856	0
0	15822	5513.651803363125	1
0	15824	5514.58025420993	2
0	15827	5514.662540685097	3
0	15834	5516.939348513358	4
0	15835	5520.139284065792	3
0	15842	5521.783415796303	2
0	15847	5522.082959610288	1
0	15853	5524.616482535244	2
0	15859	5525.97675955947	3
0	15861	5526.740112739797	2
0	15867	5528.176642020421	1
0	15873	5533.102487508269	2
0	15877	5535.685933794775	1
0	15884	5536.907089435539	0
0	15914	5546.207426224935	1
0	15915	5549.586865644902	0
0	15932	5555.45094627436	1
0	15933	5555.995519784061	0
0	15950	5558.346229677288	1
0	15954	5560.764360903395	2
0	15955	5561.954267387973	1
0	15963	5567.66056826839	0
0	15985	5569.998458559769	1
0	15986	5571.298949812422	0
0	15998	5576.175829349346	1
0	15999	5577.04519931298	0
0	16011	5578.873513659708	1
0	16014	5579.141562137405	0
0	16043	5590.767302985903	1
0	16045	5593.985780927172	2
0	16048	5595.096858607655	1
0	16054	5596.789597434686	0
0	16066	5600.855139489389	1
0	16069	5603.083619800417	0
0	16075	5604.020006418193	1
0	16077	5604.08719719555	2
0	16080	5605.738545278313	3
0	16081	5605.753365597818	2
0	16087	5607.351974323235	1
0	16092	5608.00681184625	0
0	16105	5609.943738829322	1
0	16106	5610.837929527421	0
0	16112	5611.278080865471	1
0	16113	5611.694073890396	0
0	16124	5614.209603355216	1
0	16126	5614.854470566143	2
0	16129	5615.093246170815	3
0	16132	5617.59585419042	4
0	16133	5618.909363559686	3
0	16138	5619.264136914054	2
0	16147	5622.320074720618	3
0	16149	5622.45554143992	2
0	16160	5628.189209552968	3
0	16163	5630.701124275406	2
0	16168	5631.686582538312	1
0	16174	5633.081873430451	0
0	16185	5634.967399680117	1
0	16190	5638.262876203558	0
0	16216	5642.224384880799	1
0	16217	5643.329896536268	0
0	16244	5648.594472019742	1
0	16246	5649.304955749896	2
0	16249	5652.506508585599	1
0	16256	5655.204176795324	0
0	16295	5664.035949925332	1
0	16296	5665.057159328463	0
0	16307	5668.082946392315	1
0	16310	5672.235157104305	0
0	16316	5673.448180431798	1
0	16318	5674.971334766688	0
0	16326	5675.591425286982	1
0	16330	5677.063806089005	0
0	16336	5677.182620122624	1
0	16339	5677.305008419106	2
0	16342	5680.124767914391	1
0	16349	5680.715718020035	2
0	16351	5682.479621971438	3
0	16352	5682.549788565122	2
0	16359	5683.904617204979	3
0	16361	5684.502845611247	4
0	16362	5684.539002554165	3
0	16368	5685.945783432782	2
0	16376	5688.896968675808	1
0	16385	5690.598203707442	2
0	16387	5690.949706092593	3
0	16389	5692.868217991	4
0	16390	5697.320209888417	3
0	16396	5698.790971289409	4
0	16403	5699.900845059071	5
0	16404	5700.189887845402	4
0	16409	5700.436944523425	3
0	16416	5703.027935099785	4
0	16417	5705.100120280296	3
0	16425	5707.408123549961	2
0	16434	5708.81582504587	3
0	16435	5709.791001161517	2
0	16441	5709.818476860212	3
0	16443	5712.384851814438	2
0	16449	5713.325646681935	1
0	16460	5719.77089847118	0
0	16476	5723.88646548848	1
0	16477	5724.114624836432	0
0	16489	5725.956884570218	1
0	16491	5727.545552840866	2
0	16497	5732.206349969726	3
0	16498	5734.30966104203	2
0	16507	5738.095040743721	1
0	16514	5738.346810498385	2
0	16518	5739.842441300922	3
0	16519	5740.826091175587	2
0	16524	5741.588590589792	1
0	16529	5742.251095445237	0
0	16533	5743.124463565541	1
0	16537	5744.209122249382	0
0	16544	5746.583225012089	1
0	16547	5748.371386679228	2
0	16548	5749.608826608506	1
0	16554	5749.832669066053	2
0	16557	5752.587507522157	3
0	16559	5753.194098089308	4
0	16560	5753.314422996351	3
0	16565	5755.372847467981	2
0	16570	5755.684826893293	1
0	16574	5757.613520081372	2
0	16581	5760.577086718314	3
0	16582	5761.70736157171	2
0	16589	5762.329333388297	3
0	16591	5762.371073546257	4
0	16595	5765.873873346361	3
0	16600	5766.751641725774	2
0	16609	5771.487523996143	1
0	16615	5771.491988561587	2
0	16619	5773.757208237095	3
0	16620	5773.819318209619	2
0	16628	5774.298405951225	3
0	16630	5774.964004582575	4
0	16631	5776.668077811697	3
0	16635	5778.2593925221	4
0	16638	5779.187842827016	3
0	16645	5782.701471690487	4
0	16651	5785.81757821553	5
0	16652	5787.601598658105	4
0	16659	5788.72882371265	5
0	16662	5789.685564778401	4
0	16668	5792.691779440024	3
0	16674	5793.072103655345	4
0	16676	5794.038142329775	3
0	16683	5795.907607156483	4
0	16685	5797.199127803906	5
0	16687	5798.22800370883	6
0	16688	5798.559572391425	5
0	16693	5799.866826278944	4
0	16699	5801.149300700379	5
0	16701	5802.029465799077	4
0	16710	5803.334133626065	5
0	16713	5804.481354259378	6
0	16715	5805.435181391747	7
0	16717	5807.217109145725	8
0	16718	5807.7515608626	7
0	16724	5808.011822343635	8
0	16725	5808.314458540614	7
0	16730	5808.953110306999	6
0	16735	5810.415531147732	5
0	16742	5813.110753598549	4
0	16749	5815.131602391763	5
0	16750	5818.303258381865	4
0	16755	5819.192123769168	3
0	16765	5826.138694425238	4
0	16766	5826.281256934528	3
0	16772	5826.727648421306	4
0	16775	5827.66058808106	3
0	16780	5828.040266348499	2
0	16789	5831.382804532589	1
0	16794	5832.266935845267	0
0	16814	5837.354619642079	1
0	16815	5837.393451618654	0
0	16822	5838.15957528449	1
0	16823	5838.834730384362	0
0	16832	5843.608498791659	1
0	16835	5850.615890337641	0
0	16849	5853.189414688123	1
0	16850	5853.741642578611	0
0	16857	5854.163793423596	1
0	16858	5858.64978607636	0
0	16875	5866.020548113294	1
0	16876	5866.226154526341	0
0	16902	5870.024787092158	1
0	16906	5871.959956605895	2
0	16908	5872.601737958114	3
0	16909	5873.493617575461	2
[...]
4	73853	25808.2726029807	8735.6654121501
4	73888	25825.585932073202	8744.1551622492
4	73895	25829.014835110605	8745.5617002214
4	73907	25831.458590289393	8741.2260223225
4	73985	25856.78614373424	8762.6514138789
4	73997	25859.553947702031	8752.0415026909
4	74010	25864.109554903189	8753.2175662808
4	74059	25876.822859607806	8764.742783999
4	74066	25879.788795141114	8756.1502581904
4	74079	25882.652159579716	8754.3074911194
4	74092	25884.825558775933	8753.2586514034
4	74103	25886.796402426008	8755.2131473325
4	74122	25892.764206790534	8755.6509106822
4	74139	25897.364371103186	8759.0718592576
4	74295	25959.59179058668	8820.4618426614
4	74300	25961.065923612849	8818.9162933655
4	74307	25963.429304690406	8808.6501369866
4	74376	25981.594660409618	8826.102785479
4	74527	26032.862260215393	8876.0962689488
4	74536	26037.031349221131	8877.4618151646
4	74541	26039.040977334932	8876.0202375391
4	74548	26041.814113673981	8876.4158044251
4	74582	26059.40905774743	8893.1179967963
4	74591	26062.698070815132	8892.7882573105
4	74605	26066.729232980715	8891.2019910758
4	74622	26074.778067745899	8892.7958819891
4	74805	26136.740525425739	8953.7692188779
4	74810	26136.954979466551	8946.6376994034
4	74820	26142.102561715307	8946.0858830172
4	74839	26145.423492790432	8948.8438982865
4	74845	26148.449925474243	8939.0315478768
4	74858	26152.494650355568	8940.8492323622
4	74903	26176.509935717979	8952.7855544016
4	75130	26267.915983019409	9042.0901243088
4	75143	26269.625645654029	9041.2007793692
4	75148	26269.66713803668	9039.678714188
4	75155	26271.990700088345	9025.7407740052
4	75166	26276.779581698145	9023.3741817553
4	75188	26282.278576683977	9026.2142414654
4	75203	26290.918205658634	9033.2015383485
4	75210	26291.976864300415	9033.9624725113
4	75238	26301.848539007206	9027.1754767089
4	75243	26302.590302385201	9027.2612019404
4	75254	26307.880785452782	9032.2920586008
4	75279	26315.663270758219	9037.698791036
4	75284	26316.983295832219	9032.8902857665
4	75289	26317.398575365232	9031.2980421369
4	75306	26322.933941540126	9030.3974713746
4	75347	26333.521548458108	9038.0165258701
4	75413	26350.362631527096	9052.5938282227
4	75434	26361.132152993316	9057.4051870886
4	75439	26362.635316611398	9058.8759803037
4	75446	26363.834389407853	9057.3183886786
4	75509	26390.862446048032	9074.7653122226
4	75514	26391.306697489847	9071.7674302096
4	75533	26406.636904286467	9081.6439270831
4	75607	26426.305211551678	9062.1715448785
4	75612	26428.993086266197	9052.8780985588
4	75621	26436.937121201775	9055.2978135683
4	75670	26450.44785881347	9065.4973493902
4	75688	26457.932945596161	9070.9273624165
4	75717	26471.898611314816	9082.9376556276
4	75753	26485.686910171123	9091.4207097163
4	75763	26489.277305956423	9093.1149489863
4	75786	26492.445268032093	9095.9170213007
4	75807	26500.036855341988	9102.3562129727
4	75818	26500.845761138353	9095.8115411951
4	75823	26501.69737859785	9092.368067032
4	75830	26503.703121489726	9082.619850455
4	75843	26506.685253687257	9075.5098690046
4	75852	26509.924082442244	9071.2075530746
4	75877	26513.601823627129	9071.2592077764
4	75902	26527.252146300454	9075.1343078126
4	75971	26557.53291584583	9105.05172464
4	75976	26558.150027528133	9101.4792879832
4	75983	26560.790850608588	9088.8266691031
4	76020	26566.255493113988	9092.5101054948
4	76030	26574.331526779524	9100.4295631908
4	76048	26577.591925655981	9094.5533660741
4	76053	26579.092273719395	9091.0768406361
4	76062	26580.668995642331	9092.4880099464
4	76078	26582.628728083784	9079.9990208035
4	76083	26584.466895180426	9080.5681409377
4	76097	26591.636995287909	9084.1472701322
4	76142	26604.025241887942	9090.1959597061
4	76172	26614.595769459958	9092.8063433746
4	76180	26615.422294853882	9092.6438901769
4	76188	26618.134857620267	9087.8808792114
4	76205	26627.09700149278	9095.1313085913
4	76232	26632.924697406239	9100.8152462849
4	76257	26640.446974877921	9105.3998293465
4	76264	26643.904726924316	9104.7626123309
4	76274	26644.735229848232	9104.1666096274
4	76285	26646.778886179019	9104.7839726055
4	76293	26651.219731950609	9100.184767343
4	76300	26653.315213048997	9095.0732100462
4	76325	26661.717733332508	9103.437158302
4	76348	26667.599959275729	9107.8638153324
4	76376	26678.440396850587	9117.4657464033
4	76381	26679.927254654277	9113.2354847428
4	76389	26682.086510998087	9107.7332090765
4	76401	26685.071342140066	9108.8904416132
4	76408	26689.129078959001	9112.8885865197
4	76418	26694.983961093603	9117.1477282404
4	76522	26725.153637181162	9144.8682661187
4	76527	26726.516811164561	9134.5275186732
4	76532	26727.674932716791	9131.390592835
4	76539	26731.352240086994	9130.7651463623
4	76550	26733.857821247834	9127.4400848936
4	76569	26736.635836181365	9128.9309543333
4	76582	26742.031830232831	9131.0670946834
4	76607	26747.035675886666	9135.0463712719
4	76613	26748.336357347873	9130.3634280662
4	76620	26752.260371701451	9134.1482008686
4	76633	26756.708251321163	9131.6794676587
4	76640	26762.400267483918	9134.7541505519
4	76651	26764.377303762236	9127.3600894408
4	76656	26764.843345900536	9124.5754732605
4	76671	26776.036835019911	9134.4643637171
4	76752	26800.203374354901	9137.6982219858
4	76768	26803.810536871108	9137.8473305335
4	76775	26804.973499601442	9133.9487160233
4	76786	26811.289785368363	9139.5043394217
4	76808	26815.14020476085	9139.0075111648
4	76813	26816.57575289545	9135.092391997
4	76818	26821.717941751976	9134.4410045975
4	76823	26822.53939156622	9123.8032449477
4	76828	26825.887788621141	9126.4281872868
4	76835	26828.058393083196	9124.9649351203
4	76840	26831.436635834281	9087.8263701152
4	76851	26839.542410375794	9094.0559253457
4	76880	26846.896932065359	9075.8401083703
4	76885	26848.912014800733	9075.0564068208
4	76894	26852.657222179514	9076.9729329636
4	76955	26876.538695607808	9099.5981814439
4	76981	26880.269145175463	9103.2006327033
4	76987	26881.806193397841	9104.6806562495
4	76996	26885.581439293033	9097.672013375
4	77011	26891.091618799423	9096.5053040621
4	77018	26893.205255489251	9088.860781908
4	77031	26897.849842856197	9071.7251064356
4	77074	26918.220911571147	9079.8686276146
4	77079	26918.878088663375	9058.588222399
4	77087	26921.201077813992	9053.2017487605
4	77098	26922.577183595878	9052.6403074796
4	77103	26924.197676668645	9050.9935253319
4	77115	26932.714177506185	9057.7430280557
4	77127	26933.471823142553	9051.8480202185
4	77147	26943.465049274699	9046.0146434626
4	77231	26976.031722041054	9072.9582707092
4	77237	26985.314413417873	9077.1112688873
4	77242	26990.24141114944	9080.5224106347
4	77247	26993.365566126194	9082.2404630453
4	77252	26993.89502899228	9081.0656298697
4	77259	26995.298090179578	9056.379228122
4	77270	27000.617537326952	9052.9799484906
4	77287	27006.246798738651	9057.4217638651
4	77296	27009.110835011527	9052.092332284
4	77308	27009.833954732093	9048.1136461449
4	77321	27015.050127844975	9045.5967479597
4	77334	27018.909007125525	9046.9662056975
4	77349	27021.428860489075	9033.5174400681
4	77373	27028.284598430631	9038.0916585477
4	77408	27037.785539554984	9046.794491528
4	77447	27051.709537433094	9057.5689562752
4	77454	27052.162502286202	9043.9626495919
4	77467	27060.791485513795	9051.2263431691
4	77479	27062.29955247146	9048.0808912368
4	77486	27064.938189785698	9041.1496698529
4	77505	27077.570207278695	9052.8464802725
4	77645	27130.661969980036	9077.9462491754
4	77686	27143.053251296612	9087.6352363291
4	77699	27146.697864247846	9090.6131562255
4	77734	27154.449550554195	9092.3129890725
4	77741	27155.869302323999	9091.7457143836
4	77762	27168.94289247264	9094.2391327591
4	77793	27183.217685511594	9105.9093052594
4	77800	27185.375106028589	9103.1130490538
4	77818	27189.662913050229	9094.2670087748
4	78006	27262.184151830388	9166.3816854054
4	78082	27294.294376255534	9194.4574287875
4	78120	27304.000180146103	9203.3757855104
4	78125	27304.751946712964	9196.8383180045
4	78131	27307.283373204483	9194.0566562774
4	78136	27309.784411715032	9185.550853139
4	78143	27313.230093227812	9187.8326384032
4	78162	27319.9674649008	9194.2710225242
4	78198	27326.675335965931	9180.8321341825
4	78205	27329.672286384469	9183.6904228559
4	78210	27330.260508657634	9175.6933657226
4	78219	27332.156834628199	9173.7996922604
4	78247	27340.382817118269	9180.9846172345
4	78252	27341.457934609613	9177.8397762905
4	78277	27351.499143106335	9180.830692693
4	78443	27402.889234458798	9230.831954004
4	78448	27402.910323274717	9224.5452462057
4	78460	27405.896273123411	9220.8409212707
4	78502	27420.011037660929	9231.3945892808
4	78514	27422.52110263543	9233.3546415532
4	78520	27423.410168470458	9226.4579084926
4	78525	27427.057827125846	9228.3960732294
4	78530	27428.909987164073	9227.5339683962
4	78549	27435.787555627312	9230.3224208033
4	78586	27447.067259409288	9240.31211246
4	78592	27447.563352216421	9232.9019714704
4	78599	27449.657755528379	9230.5498422895
4	78613	27457.297485610357	9232.6063167482
4	78667	27477.198774500897	9251.2627457188
4	78674	27477.681733212181	9246.4470899948
4	78682	27479.81232947529	9247.8381070843
4	78693	27483.303436510396	9246.1881924299
4	78702	27487.462438532261	9247.0852014887
4	78713	27490.453666858909	9239.9946905184
4	78720	27493.996477152308	9236.4470025811
4	78735	27499.935039678219	9239.1988186017
4	78745	27501.02758342581	9222.4819810742
4	78756	27507.594637995713	9227.8878576427
4	78782	27512.276440787522	9222.3636690174
4	78787	27515.044066967077	9218.3500347263
4	78795	27522.598506543778	9220.3240694685
4	78814	27525.790191990228	9221.0633123573
4	78967	27583.295788979426	9272.0759408913
4	78972	27586.728049622624	9273.3769593195
4	78979	27588.097328059707	9272.1428822392
4	78986	27591.098540620402	9273.7015108857
4	78993	27592.328801796872	9268.2964153531
4	79104	27625.557035609091	9297.6372318862
4	79109	27625.728209166511	9283.4009667547
4	79114	27628.405590292293	9280.5571654768
4	79123	27630.865187333756	9271.7412644721
4	79136	27637.836566098309	9264.0907619512
4	79236	27673.504522997628	9295.3482031169
4	79241	27675.752741779826	9293.7028290505
4	79255	27696.124122406446	9309.1216281226
4	79344	27725.351825682707	9333.6661761735
4	79357	27726.725180900611	9332.872455963
4	79376	27736.115807080173	9341.7706874832
4	79408	27751.483074755247	9356.0658109888
4	79429	27754.823567118841	9356.8804801336
4	79436	27757.800552573977	9357.6693445758
4	79446	27761.760094426035	9356.5266952992
4	79453	27770.130861761129	9364.0268887064
4	79473	27776.523902697224	9366.4607053778
4	79479	27776.864676247302	9363.7355686091
4	79492	27782.134200376816	9362.4810165018
4	79520	27789.22728769022	9369.3261355633
4	79535	27794.322468455806	9347.8411189347
4	79586	27817.472933171809	9365.6356019054
4	79593	27818.530656603175	9357.9212610237
4	79617	27827.855831704836	9364.6287315991
4	79631	27832.292844858738	9368.5429813385
4	79641	27833.947431484968	9357.7642005702
4	79647	27838.133714032624	9352.8089018296
4	79652	27838.72956140477	9344.197571283
4	79670	27846.88773063264	9347.9034057817
4	79904	27911.70974885612	9405.1317215615
4	79912	27913.670858979559	9390.8007466385
4	79923	27921.78429140714	9392.9230025469
4	79928	27924.148762507865	9390.6179068953
4	79935	27929.443008396925	9384.7459906451
4	79942	27931.912941270677	9380.2960767441
4	79947	27933.545819352062	9374.8176504085
4	79956	27941.855934440724	9379.6168619506
4	79997	27957.244757251284	9388.8067108546
4	80004	27965.089063968246	9383.249381155
4	80013	27969.683342915803	9384.1719224422
4	80026	27975.195122874333	9384.5477278448
4	80069	27988.140188162588	9387.1643237981
4	80074	27990.739811631253	9387.9783994719
4	80081	27992.959289589551	9389.5930922508
4	80093	27996.209419326208	9383.8551445012
4	80107	28003.310043189594	9382.5505853179
4	80118	28011.777531717925	9389.7298947805
4	80131	28017.429329934876	9383.6461975889
4	80161	28025.756531283362	9382.3728740023
4	80192	28035.123484936363	9370.7866847705
4	80220	28041.846084727387	9377.379827301
4	80225	28045.843091636182	9378.5424145946
4	80234	28049.205011819065	9371.307428621
4	80239	28051.480409532178	9371.7162985649
4	80244	28054.101169632734	9371.6510813732
4	80255	28060.932300445763	9367.8569516823
4	80281	28069.776461186802	9363.429183381
4	80307	28076.090229460337	9355.3720828078
4	80327	28081.813849690634	9351.913953347
4	80334	28082.514153420554	9352.458597778
4	80343	28085.636793679011	9350.6336375133
4	80380	28099.288482834861	9363.6088940623
4	80394	28110.181897754772	9370.3645874433
4	80620	28189.364600840951	9448.351883074
4	80626	28190.974648116203	9442.8189775416
4	80631	28191.328817828133	9435.5454363438
4	80636	28191.484890991552	9425.6220447819
4	80641	28192.102612376072	9424.4543832127
4	80648	28193.541027866243	9425.7074762936
4	80660	28199.907996332343	9431.86238191
4	80676	28209.406852420316	9439.2874786602
4	80707	28220.098311252874	9448.9737865041
4	80759	28235.213323211391	9460.6706304461
4	80779	28243.514933568448	9465.7605349931
4	80823	28260.458571198332	9478.3784981274
4	80833	28263.228286943416	9473.1084263613
4	80850	28265.333522145491	9472.2278508421
4	80861	28267.393263778547	9474.2335829477
4	80868	28270.400723932916	9476.5831941959
4	80881	28281.555270960289	9487.2328396942
4	80894	28286.098954312668	9491.3253266296
4	80901	28287.912224219427	9487.0768865195
4	80908	28290.638332075933	9480.7330900644
4	80919	28294.725312630242	9484.642134078
4	80940	28301.537854071833	9489.6967290182
4	80997	28315.031998063812	9495.4416590366
4	81009	28318.602838308342	9480.2192362815
4	81016	28321.327860951548	9481.5658691627
4	81032	28327.258922363516	9486.1636925908
4	81044	28332.129793534468	9478.1572931961
4	81051	28335.743898965937	9461.0261867078
4	81065	28340.032826348191	9458.5832756495
4	81070	28340.624649678276	9451.6265570049
4	81085	28346.002454688508	9450.5890709337
4	81119	28354.406809316833	9447.6075159342
4	81132	28367.34978916113	9457.1185352617
4	81158	28371.058463212124	9457.7743409992
4	81183	28388.227681848272	9471.9802511105
4	81256	28413.361785116344	9484.0949782111
4	81261	28413.373219606192	9472.511955082
4	81266	28413.811967805739	9460.686642624
4	81272	28414.357411102694	9459.8047267232
4	81282	28415.371721543556	9459.8693239925
4	81309	28430.475460681396	9465.4505328715
4	81550	28508.910507103484	9530.6604455218
4	81555	28509.443463241454	9520.9485493203
4	81562	28510.804649834866	9511.038829431
4	81577	28519.067890584907	9514.4095507317
4	81582	28522.400362432358	9514.0660326515
4	81591	28524.990355203732	9509.9233292799
4	81795	28589.732219365563	9567.0894291792
4	81908	28630.56001799239	9606.3484640229
4	81947	28636.476873704231	9612.1575061042
4	81975	28649.32483141943	9624.5028581325
4	82003	28661.475800317991	9635.2375396369
4	82045	28690.919372387335	9662.1693373091
4	82054	28695.013903993775	9664.5824852642
4	82059	28695.749975215376	9665.1975441766
4	82064	28699.486505352667	9666.2827423803
4	82071	28706.327029127167	9672.286362707
4	82089	28715.069404511617	9678.4617164111
4	82114	28722.479766200285	9677.3699235717
4	82127	28727.240395739174	9679.3446800018
4	82132	28727.692778347231	9668.5562517137
4	82145	28733.354540698944	9668.7191648363
4	82171	28739.713196427997	9672.7062955786
4	82416	28817.12924781789	9749.0707377317
4	82421	28819.796593277649	9732.5576875953
4	82428	28820.570063030581	9732.1123806097
4	82439	28823.776443529163	9731.2421817358
4	82448	28827.188863968218	9728.3692833426
4	82476	28832.317108710157	9724.525360573
4	82482	28834.169162474401	9721.0684605607
4	82489	28837.389272571436	9723.6201030805
4	82506	28842.454989810814	9722.6475110072
4	82511	28845.616359196892	9721.5581228983
4	82518	28848.096876686953	9713.5167677106
4	82529	28852.175001058272	9717.4841413389
4	82586	28876.419601544724	9736.5851648783
4	82599	28878.657687877721	9736.0091274919
4	82613	28882.962520216837	9738.3747137541
4	82659	28896.137669273931	9732.2399721536
4	82699	28917.01167184893	9747.8015486307
4	82734	28929.450659528245	9759.0214542024
4	82741	28929.643068067679	9752.5962708186
4	82794	28946.861834729814	9769.0457468699
4	82828	28953.426227980528	9774.45357363
4	82837	28954.447109367929	9773.0490498109
4	82847	28956.084009011238	9768.3435636545
4	82866	28961.790792883235	9757.4662478761
4	82971	28999.400558692504	9795.0745248383
4	82978	29002.951319543698	9791.0071727441
4	82986	29005.349539061379	9788.0664990086
4	83005	29017.097193153497	9796.9552755759
4	83049	29034.445643196238	9808.6283182724
4	83091	29046.112811469696	9817.8049212992
4	83116	29057.690743879418	9825.5815395713
4	83135	29065.624931694662	9831.4538436104
4	83151	29069.452409548212	9826.0969905611
4	83265	29105.213625486307	9859.9635210832
4	83532	29196.218233416388	9948.8994262702
4	83537	29196.731035497546	9941.3137322993
4	83546	29197.526495348594	9936.6914714153
4	83562	29201.37536874953	9934.1077096845
4	83744	29283.635835896159	10012.156382886
4	83755	29287.626633859174	10014.109465473
4	83766	29292.006733997959	10014.63793354
4	83791	29298.362839971248	10019.699080614
4	83806	29300.478353440255	10007.552457747
4	83837	29314.973648057304	10020.754081878
4	83860	29321.253545240325	10022.709230973
4	83919	29336.473355361229	10034.924001542
4	83932	29341.442301409366	10033.154318198
4	83955	29356.567161548455	10043.360840208
4	84008	29381.237607812152	10065.568065095
4	84021	29385.804350124473	10062.934703155
4	84030	29389.891164800447	10065.610445908
4	84042	29390.821247915965	10058.156813248
4	84053	29393.637479889223	10059.197207572
4	84093	29400.592994240485	10050.50178794
4	84108	29403.931716665046	10051.758096461
4	84144	29416.980078793581	10043.285789388
4	84298	29470.003605704892	10089.716655687
4	84303	29470.789290997233	10090.30799796
4	84308	29472.137650618601	10084.920527578
4	84316	29477.753173397482	10088.288305845
4	84327	29482.078954009014	10091.415510172
4	84350	29485.543994266115	10091.426704876
4	84365	29491.939145733301	10076.862186243
4	84378	29497.095372406975	10076.78915509
4	84415	29506.710385598804	10086.143371626
4	84422	29508.915652846553	10087.471780769
4	84427	29509.55162159033	10085.086734392
4	84443	29519.5202071248	10093.548601688
4	84511	29544.225359384015	10116.670488141
4	84570	29565.153736917671	10130.643701916
4	84600	29571.163197675854	10129.460753009
4	84613	29573.666833253839	10119.905463584
4	84625	29576.454186695888	10110.536772393
4	84633	29577.791868810601	10104.259002358
4	84649	29579.260347079421	10102.587975199
4	84691	29606.884640219418	10103.08997896
4	84696	29607.309951008702	10102.622422988
4	84705	29620.753976744985	10102.487741846
4	84722	29630.271302466666	10110.28202109
4	84742	29634.410775779094	10112.686946391
4	84767	29641.603825205205	10117.39507969
4	84778	29647.108060315916	10122.892205041
4	84815	29656.801679192377	10122.431210077
4	84879	29672.090774237176	10130.714842218
4	84982	29710.082221258219	10153.498207795
4	84989	29715.239702097765	10156.462636338
4	84994	29715.269368153473	10146.609516149
4	85001	29719.987682299381	10150.657269813
4	85015	29721.948624293867	10143.2498264
4	85031	29730.236778526155	10140.872440407
4	85090	29746.961857206803	10153.67228192
4	85098	29750.33179242143	10154.618304878
4	85112	29751.620423489751	10153.89515473
4	85168	29767.601807701064	10167.186030172
4	85173	29768.570476835438	10138.128866545
4	85180	29769.250239707729	10133.458669142
4	85205	29778.415185461108	10140.407978838
4	85257	29796.488385747874	10152.008390814
4	85264	29801.67869747605	10155.873249343
4	85281	29809.818513032882	10159.643391559
4	85304	29818.940016684489	10166.390339635
4	85314	29820.625856951767	10166.658381419
4	85326	29828.516556999566	10173.745512314
4	85385	29841.581893761239	10177.73036056
4	85394	29847.448139407385	10170.843290056
4	85403	29854.151042631564	10172.676930909
4	85414	29859.118072818264	10176.483735814
4	85419	29862.59949123	10178.256387636
4	85426	29864.335649502865	10174.375830198
4	85439	29866.506868488824	10173.243815612
4	85456	29873.026831656776	10167.510420818
4	85656	29943.342019078552	10237.748415153
4	85670	29949.363631046717	10241.38176679
4	85759	29985.199521190856	10272.080158444
4	85794	29996.180759634402	10280.936292149

