version 2
run Third-n2-16-20191016-17:04:58-10488
attr configname Third-n2
attr datetime 20191016-17:04:58
attr experiment Third-n2
attr inifile omnetpp.ini
attr iterationvars ""
attr iterationvarsf ""
attr measurement ""
attr network org.omnetpp.queueing.Pizza
attr processid 10488
attr repetition 16
attr replication ""
attr resultdir results
attr runnumber 16
attr seedset 16
param **.PS.maxInventoriedPS 2
param **.U1.interArrivalTime exponential(4s)
param **.U2.interArrivalTime exponential(6s)
param **.PS.serviceTimeForInventoryU1 exponential(1.4s)
param **.PS.serviceTimeForInventoryU2 exponential(1.4s)
param **.PS.serviceTimeDirectU1 exponential(1.8s)
param **.PS.serviceTimeDirectU2 exponential(1.8s)
param **.PS.probabilityProducing 0.8
param **.CS.serviceTimeU1 exponential(2.3s)
param **.CS.serviceTimeU2 exponential(2.3s)

vector 0 Pizza.EntryQueueU1 queueLength:vector ETV
attr interpolationmode sample-hold
attr title "queue length, vector"
vector 1 Pizza.CS queueLength:vector ETV
attr interpolationmode sample-hold
attr title "queue length, vector"
vector 2 Pizza.EntryQueueU2 queueLength:vector ETV
attr interpolationmode sample-hold
attr title "queue length, vector"
vector 3 Pizza.sink lifeTime:vector ETV
attr interpolationmode none
attr title "lifetime of arrived jobs, vector"
attr unit s
vector 4 Pizza.sink lifeTimeU1:vector ETV
attr interpolationmode none
attr title "lifetime of arrived jobs, vector"
attr unit s
vector 5 Pizza.sink lifeTimeU2:vector ETV
attr interpolationmode none
attr title "lifetime of arrived jobs, vector"
attr unit s
0	0	0	0
0	18	3.973083641955	1
0	21	5.113668580682	0
0	42	12.007468550332	1
0	48	13.743259636713	2
0	52	15.53801292629	3
0	54	15.909726063362	4
0	55	16.141447235162	3
0	61	16.878328974357	4
0	64	17.393658772077	5
0	65	18.965391437561	4
0	72	19.703865305068	3
0	81	23.663697312157	2
0	89	27.016026485207	1
0	96	27.382564068827	2
0	97	28.40232373586	1
0	104	29.56040757203	2
0	105	31.059422342851	1
0	111	31.903688853484	2
0	113	33.249379064381	1
0	118	33.537379043582	0
0	132	36.231409654479	1
0	137	37.962022852382	0
0	148	39.682473493352	1
0	150	39.723829360801	2
0	156	41.486586891674	3
0	157	41.540832831155	2
0	163	44.660000695282	1
0	169	45.546065047092	2
0	171	45.913283889532	1
0	179	49.434982832526	2
0	184	62.631486160651	3
0	185	62.672671634289	2
0	193	66.667003122149	1
0	198	68.388946008847	0
0	213	75.286064152758	1
0	218	78.733492776938	0
0	225	79.000512715946	1
0	226	79.885002444197	0
0	233	80.657640584226	1
0	234	80.896897666234	0
0	246	85.999384825556	1
0	247	90.036798930892	0
0	254	91.13867664735	1
0	257	91.435213750677	0
0	263	91.905001440988	1
0	264	94.03460038335	0
0	287	97.717075097299	1
0	289	98.241090977353	2
0	290	98.688461143014	1
0	296	101.110828827163	0
0	300	101.242528207418	1
0	304	104.198868196194	0
0	319	110.82252771977	1
0	322	112.678851845949	2
0	323	112.887571599555	1
0	329	113.648395653238	0
0	348	117.182228490857	1
0	352	119.378977283398	2
0	353	121.208828392683	1
0	358	121.254759970117	0
0	372	123.816008698362	1
0	376	129.827810166041	0
0	385	133.749607992356	1
0	386	134.144839941541	0
0	403	136.945951694576	1
0	405	138.636015625107	2
0	406	138.889203570969	1
0	412	139.849417389595	0
0	423	142.281535836742	1
0	426	143.278145254932	0
0	453	146.495430736709	1
0	455	147.128949314262	2
0	457	147.525744311163	3
0	459	148.392285068776	4
0	460	151.421967409491	3
0	468	155.532865704547	2
0	474	156.339109718685	3
0	476	156.55753986176	4
0	479	157.692710371474	5
0	481	158.197508727352	6
0	484	161.55515269867	7
0	486	163.226270342702	8
0	487	163.609529558058	7
0	493	164.355175090828	8
0	494	165.41817491666	7
0	504	168.409042207162	8
0	506	170.702851897492	9
0	507	171.075494340685	8
0	513	171.523302914501	9
0	515	173.888103820784	8
0	522	174.924418843518	9
0	524	175.776145327882	10
0	526	177.874072490634	11
0	530	182.345057189937	12
0	531	184.010128636996	11
0	536	184.413591919935	10
0	542	184.491914028538	11
0	545	187.453304936361	10
0	552	189.235426920777	9
0	558	189.363008027638	10
0	559	189.443279026568	9
0	565	191.914920215274	8
0	573	194.117142444628	9
0	574	195.852000315053	8
0	579	195.861413576722	7
0	584	196.267373747765	6
0	592	197.789183974346	7
0	595	199.776152728504	8
0	596	200.485828181149	7
0	602	203.134138274547	8
0	603	203.224186132415	7
0	611	207.864711483929	6
0	618	212.851816298898	5
0	624	213.680358192687	6
0	626	213.926760849521	7
0	628	214.55081089302	6
0	635	216.270391784743	7
0	637	216.904813786198	8
0	638	217.541868028162	7
0	645	218.175211037132	6
0	650	218.254327019653	5
0	655	218.47206812206	4
0	662	220.118599030267	5
0	663	221.064479397937	4
0	668	221.41067414068	3
0	672	224.934628941912	4
0	674	225.765453756278	5
0	677	226.491660560808	4
0	681	227.021852802834	5
0	683	227.810705051994	6
0	685	227.846042823277	7
0	689	229.342300322076	8
0	697	234.396405028776	9
0	698	235.389355716397	8
0	706	238.021838385953	7
0	711	239.954293851287	6
0	716	241.199898724171	5
0	720	241.619043740617	6
0	723	241.782432709245	5
0	729	242.875158545085	6
0	732	243.187752275189	5
0	740	247.032006216286	4
0	750	251.141213341287	3
0	757	254.648521145426	4
0	758	254.649903982286	3
0	763	256.640732329554	2
0	770	259.394287696113	1
0	775	259.920429381746	0
0	800	264.969999117895	1
0	803	268.210807265093	2
0	805	268.388945804723	3
0	807	268.559744449229	4
0	808	269.290273747672	3
0	814	269.297304373133	4
0	815	270.175169981513	3
0	823	271.807618410261	4
0	824	271.839615501414	3
0	832	273.910021668031	2
0	837	274.544031242399	1
0	842	274.718410933562	0
0	856	284.214188596068	1
0	857	284.36899650612	0
0	863	284.528594103686	1
0	864	284.782902635743	0
0	868	285.835233232925	1
0	870	286.479746177106	2
0	875	289.520291965253	1
0	881	289.846763555366	2
0	883	290.142567576095	3
0	885	290.433835585008	4
0	888	298.351220686334	3
0	895	301.446015351397	4
0	897	304.072274111454	5
0	898	304.498667276224	4
0	905	304.848804224686	5
0	907	305.453038829174	6
0	908	305.557073737162	5
0	914	305.558022589615	6
0	916	306.376665594272	5
0	922	306.686154052368	6
0	925	308.609717245919	5
0	937	310.64519021953	4
0	942	312.361142202935	3
0	947	312.68970757225	2
0	954	314.997570609103	3
0	955	315.789448810223	2
0	961	316.151757787465	3
0	967	321.827953887033	2
0	977	325.767926893904	1
0	982	326.989653291089	0
0	1036	337.009732321863	1
0	1039	340.629297730639	0
0	1058	350.421069318974	1
0	1059	350.885018577284	0
0	1090	356.419823986519	1
0	1094	358.585837602554	2
0	1095	360.123709491594	1
0	1102	363.677664100405	2
0	1104	365.346258819067	3
0	1105	365.419009794924	2
0	1111	365.62776905981	3
0	1113	366.336621053096	4
0	1115	367.322678608503	3
0	1125	371.215496659403	2
0	1131	371.329620946955	3
0	1136	376.004389732249	4
0	1138	377.01002927738	5
0	1139	377.148942679558	4
0	1144	377.491179678672	3
0	1154	378.299927346704	4
0	1155	380.569545174324	3
0	1164	385.04945898238	4
0	1165	385.644197799029	3
0	1170	385.772578738021	2
0	1179	391.490128649181	1
0	1184	392.73865299968	0
0	1211	400.779110857973	1
0	1214	403.002178243778	0
0	1221	405.200203282455	1
0	1222	405.362704629133	0
0	1228	405.927722476613	1
0	1231	406.718547401498	0
0	1241	412.228057362172	1
0	1243	413.207658896994	2
0	1246	415.935389737324	1
0	1255	417.063178185243	2
0	1256	417.504406898386	1
0	1261	418.143786866612	0
0	1268	419.407577774175	1
0	1274	423.672259246264	2
0	1276	424.769417939229	3
0	1277	429.160739104466	2
0	1284	430.094013297281	3
0	1285	430.166197180913	2
0	1291	430.230249366372	3
0	1293	430.874518979361	2
0	1298	431.281110364931	1
0	1306	433.911380301734	0
0	1313	435.093703737262	1
0	1314	436.8688522667	0
0	1326	438.470285728191	1
0	1328	442.245210947414	0
0	1334	442.586330381762	1
0	1336	445.184556407177	0
0	1343	447.58283977277	1
0	1344	449.392245810413	0
0	1350	449.53373736936	1
0	1352	453.466870288902	0
0	1371	454.986414867371	1
0	1372	455.364430336899	0
0	1381	458.018340013633	1
0	1385	461.778687198537	0
0	1400	471.246669874779	1
0	1406	475.08131373187	2
0	1410	475.257004588359	3
0	1414	476.444830141315	4
0	1416	476.529482787235	5
0	1419	478.423840377873	4
0	1425	478.843237407067	3
0	1430	479.314881025832	2
0	1437	481.647802310185	3
0	1439	483.223712671015	2
0	1446	485.765747762349	3
0	1447	491.120875196708	2
0	1454	493.175940524844	3
0	1455	494.194235109617	2
0	1462	495.608663225312	3
0	1463	499.037993828486	2
0	1469	499.958334369678	1
0	1475	500.709390537355	0
0	1496	508.272024074233	1
0	1500	509.651559955671	2
0	1504	510.53852119996	3
0	1507	513.196459693073	4
0	1508	513.355336798132	3
0	1513	513.937010968817	2
0	1522	517.859959276455	3
0	1523	519.486385780557	2
0	1529	521.262148939518	1
0	1534	522.231588870526	0
0	1546	526.710502149597	1
0	1547	527.362216443897	0
0	1559	528.242849765498	1
0	1564	532.896304399395	0
0	1583	537.735908528717	1
0	1588	540.067028599902	0
0	1629	546.995519721587	1
0	1631	548.085810698856	0
0	1642	549.012593005955	1
0	1648	550.71900221998	2
0	1651	551.516111433049	1
0	1656	551.527279155301	0
0	1670	557.547835502491	1
0	1672	558.525563016948	2
0	1674	558.683329728551	3
0	1675	559.831300252853	2
0	1680	559.879196228817	1
0	1685	559.885626424685	0
0	1698	564.527980151122	1
0	1700	564.921346962141	2
0	1704	566.484109858225	3
0	1705	570.248998132312	2
0	1711	571.026724843984	1
0	1717	572.648212569111	0
0	1723	573.111647940017	1
0	1724	574.330667467415	0
0	1730	575.263682790469	1
0	1732	575.411368600267	2
0	1738	576.828393866137	3
0	1740	580.935259630796	4
0	1744	583.716861005636	5
0	1745	586.812121937953	4
0	1752	587.00661011059	5
0	1754	589.937056727942	6
0	1760	593.530729377887	7
0	1761	594.134575668188	6
0	1767	595.395455417227	7
0	1769	597.862800177927	6
0	1775	599.375434970351	5
0	1786	608.244111322148	6
0	1788	610.817115084312	7
0	1789	612.436256927291	6
0	1794	612.937124395531	5
0	1803	615.528613896299	6
0	1806	616.765513132574	5
0	1812	617.163672850338	6
0	1815	618.475779241662	7
0	1817	618.973071091023	8
0	1819	622.606822888042	9
0	1828	629.199991633142	8
0	1834	630.391071047424	7
0	1840	632.960016904821	8
0	1843	634.533532495602	7
0	1851	636.473811867914	8
0	1852	636.816949291375	7
0	1857	637.185361412693	6
0	1865	637.784710668704	7
0	1867	638.882913382602	8
0	1869	639.089031855633	9
0	1870	639.989508219607	8
0	1874	640.101942126078	9
0	1876	641.382467006021	10
0	1882	643.103666020319	11
0	1886	645.612415761483	12
0	1887	645.66158615936	11
0	1892	646.296542679143	10
0	1897	648.58473749643	9
0	1904	652.243370490874	8
0	1908	652.24369231032	9
0	1911	653.755639298407	8
0	1915	654.812416192256	9
0	1920	655.517689622784	8
0	1926	655.746853090802	9
0	1928	658.410833126089	8
0	1936	658.57465809809	7
0	1943	660.409293255885	6
0	1952	665.970011429458	5
0	1959	669.723250664874	4
0	1964	675.178825508189	3
0	1971	677.822368420251	2
0	1976	679.455904859242	1
0	1980	679.587606384242	2
0	1983	681.053617060283	1
0	1987	681.067578411416	2
0	1994	682.738532231333	3
0	2000	684.179350718247	4
0	2001	684.596731952872	3
0	2006	684.781701603239	2
0	2011	685.254085168845	1
0	2017	687.3213152944	0
0	2027	687.895475775237	1
0	2031	690.518253153819	2
0	2033	691.156479701037	3
0	2035	692.011787690176	4
0	2039	693.061153535819	5
0	2040	695.039749565928	4
0	2046	695.59661297462	3
0	2051	695.901065870222	2
0	2063	701.069710300063	3
0	2064	702.494585587015	2
0	2070	702.94792070526	3
0	2071	703.214843483602	2
0	2076	703.56241927291	1
0	2082	704.385585048133	2
0	2085	704.646246077111	1
0	2090	707.387193145233	0
0	2115	718.960599041979	1
0	2118	719.938290025104	0
0	2125	721.351672388439	1
0	2128	723.261872802031	0
0	2135	723.993866841727	1
0	2136	724.21998485288	0
0	2142	724.672972632789	1
0	2145	725.427411879249	2
0	2146	725.847011419817	1
0	2153	726.683805617963	2
0	2158	731.693566533889	1
0	2163	732.017821430455	0
0	2169	733.341168394642	1
0	2171	735.239549915183	2
0	2172	740.214841391495	1
0	2180	743.784877157003	2
0	2182	744.143086472132	1
0	2187	744.4692726475	0
0	2217	756.194634119957	1
0	2218	756.566271269815	0
0	2228	760.548854701643	1
0	2230	762.320250918676	2
0	2236	766.122364181464	3
0	2240	767.204466404432	4
0	2242	767.651568184068	5
0	2246	768.089649082531	6
0	2248	772.127556094042	7
0	2252	774.0314195655	8
0	2254	774.627661276467	9
0	2255	774.766286030246	8
0	2264	775.409068714199	9
0	2265	776.770918381269	8
0	2273	777.590319381642	9
0	2274	778.267792834537	8
0	2281	780.070099019804	9
0	2282	780.160296251424	8
0	2289	781.493148742393	7
0	2297	785.51863493645	6
0	2303	786.714516178904	7
0	2304	786.896604978129	6
0	2310	788.475132344066	5
0	2315	789.490546794923	4
0	2324	793.987072503618	3
0	2330	794.195248826529	4
0	2331	798.31097042212	3
0	2337	798.487880749288	4
0	2341	802.134172014127	5
0	2343	805.158142940108	6
0	2347	809.159118540959	7
0	2348	810.087795419198	6
0	2353	810.180162812601	5
0	2359	810.68189486976	4
0	2365	810.685300367867	5
0	2366	811.659008819796	4
0	2370	812.719060931716	5
0	2377	816.801864366755	6
0	2379	816.903698332484	7
0	2382	817.624862007276	6
0	2387	818.583916479843	5
0	2391	819.17252320836	6
0	2393	819.823605675339	7
0	2398	822.222133056895	8
0	2399	823.568982550392	7
0	2406	824.337147311965	6
0	2411	824.951815838074	5
0	2416	825.039606752289	4
0	2421	825.429926873573	3
0	2426	828.142607344615	2
0	2432	828.188051424828	3
0	2433	829.015056232074	2
0	2438	829.979222839167	1
0	2445	831.258469554747	0
0	2452	836.984527068126	1
0	2454	837.944763679513	2
0	2457	840.583541523007	1
0	2465	841.403871087351	2
0	2466	841.922389486758	1
0	2471	842.299073207252	0
0	2486	843.721910908383	1
0	2487	845.620491072502	0
0	2491	848.022089513589	1
0	2495	849.024156413092	0
0	2511	851.910241249848	1
0	2516	853.226920140427	0
0	2526	854.96509297734	1
0	2531	859.032251482737	2
0	2532	859.254673598913	1
0	2540	860.770715471852	0
0	2548	863.243363291035	1
0	2549	864.536054711066	0
0	2576	869.86945162081	1
0	2577	872.185794382342	0
0	2584	874.317832149735	1
0	2587	874.853026031334	2
0	2589	876.819254698085	3
0	2590	876.839243683339	2
0	2595	877.99246399026	1
0	2601	878.204434949245	0
0	2608	879.634306527315	1
0	2610	879.894739671401	2
0	2615	887.237029997256	1
0	2619	887.38997047425	2
0	2625	888.486654087423	3
0	2628	889.284856789698	2
0	2639	898.5999468874	1
0	2647	902.965592909714	0
0	2656	906.708065304461	1
0	2658	909.398884481159	0
0	2676	911.053847729725	1
0	2678	912.737439494767	2
0	2679	912.881884056807	1
0	2686	914.955621261162	0
0	2698	917.442638998922	1
0	2699	917.976233244889	0
0	2710	918.751917358863	1
0	2716	921.764835545159	2
0	2718	926.502198598319	3
0	2720	927.756125564581	4
0	2722	928.58815383809	5
0	2725	931.961728874981	4
0	2731	932.685636599948	3
0	2740	935.41400645117	2
0	2746	935.570111654597	3
0	2747	935.705442826476	2
0	2754	936.185395746082	1
0	2762	937.907277748114	0
0	2801	947.906665355612	1
0	2803	952.665297488755	2
0	2805	952.770613647559	3
0	2807	953.240153884396	4
0	2808	954.391240555716	3
0	2817	960.446132929394	4
0	2818	961.179996925776	3
0	2825	963.220883539283	4
0	2827	963.761276237271	5
0	2828	963.878250971264	4
0	2835	967.684826633058	3
0	2841	970.825298844664	4
0	2851	976.575781657079	5
0	2855	978.476967353586	6
0	2856	978.526141054821	5
0	2861	978.764646824721	4
0	2869	981.534065456222	5
0	2870	982.241470437017	4
0	2876	983.99661295456	5
0	2878	985.95432811711	6
0	2880	989.334950594629	7
0	2881	989.574075285305	6
0	2887	992.108991002855	5
0	2893	992.706741841837	4
0	2898	993.639155168374	3
0	2906	994.934401717081	4
0	2908	995.81754444719	5
0	2910	996.709621575707	6
0	2911	997.360070066496	5
0	2916	998.576660982853	4
0	2925	1003.977402270411	5
0	2926	1004.514839071357	4
0	2931	1005.65694523432	3
0	2941	1007.669675063145	4
0	2949	1009.663012094183	5
0	2952	1012.709562388903	4
0	2958	1013.882017806578	3
0	2966	1019.998072635135	2
0	2972	1021.904385663406	1
0	2977	1022.236076280278	0
0	2997	1029.292014834779	1
0	3001	1031.457047682136	0
0	3008	1032.065358644045	1
0	3010	1032.42481855481	2
0	3012	1033.616952649442	3
0	3015	1034.927908952494	4
0	3016	1035.043820541537	3
0	3024	1038.901461064999	4
0	3025	1041.103290900944	3
0	3031	1042.13367286398	4
0	3033	1042.673355945565	5
0	3034	1042.677465703741	4
0	3041	1046.256460475337	5
0	3044	1048.566330121323	6
0	3046	1054.519351107396	7
0	3047	1055.865974796794	6
0	3052	1056.515522664507	5
0	3058	1057.139976894126	4
0	3064	1057.798512102584	3
0	3069	1057.974493759546	2
0	3078	1066.553552328466	1
0	3083	1066.961245627084	0
0	3095	1068.061836301243	1
0	3099	1069.141484883723	0
0	3150	1090.790324290874	1
0	3151	1093.264220588641	0
0	3165	1101.37247408286	1
0	3170	1105.305988448907	0
0	3177	1106.84307699504	1
0	3179	1110.810119301884	0
0	3190	1111.277458453468	1
0	3195	1112.829206427833	0
0	3218	1119.809261971572	1
0	3219	1121.199807422588	0
0	3225	1121.299309237593	1
0	3226	1121.347412496968	0
0	3239	1127.448401329786	1
0	3243	1130.973642737202	2
0	3244	1131.505486970475	1
0	3250	1133.485121867107	0
0	3280	1142.153486976844	1
0	3282	1143.320688998207	2
0	3286	1145.14266033047	3
0	3291	1148.244785416372	2
0	3300	1150.665299559068	3
0	3302	1152.422853434502	4
0	3304	1152.880199775355	5
0	3305	1154.198094356629	4
0	3311	1155.581806132197	5
0	3313	1155.595313393101	6
0	3317	1156.96034700405	5
0	3323	1157.009501224829	6
0	3326	1158.820888111332	7
0	3327	1159.555379623289	6
0	3334	1160.693525218985	7
0	3336	1161.622693570956	6
0	3343	1163.562669237551	7
0	3345	1164.751752201951	8
0	3347	1165.333287281065	9
0	3349	1166.17118601696	10
0	3351	1166.694236111309	11
0	3352	1168.956990599712	10
0	3358	1169.044296185024	11
0	3360	1169.485503153964	12
0	3363	1171.033925727053	13
0	3365	1172.009335565436	14
0	3367	1172.830467519472	15
0	3368	1174.353586786508	14
0	3373	1177.421687073384	13
0	3377	1177.806950207374	14
0	3379	1178.512665143764	15
0	3382	1182.268104494125	14
0	3388	1187.106959152944	15
0	3392	1189.29580228968	14
0	3397	1189.938088258632	13
0	3401	1191.982692362898	14
0	3407	1195.817703282523	15
0	3408	1198.0472031307	14
0	3414	1198.942175182225	13
0	3420	1199.130802937662	14
0	3422	1199.726164918628	15
0	3425	1200.556939603597	16
0	3428	1202.642181372418	15
0	3433	1203.769303560226	14
0	3440	1204.35262818432	15
0	3447	1206.926424120707	16
0	3449	1207.875417893517	17
0	3452	1209.548826684543	16
0	3459	1210.113109191155	17
0	3462	1212.015221686366	16
0	3469	1213.467490668867	17
0	3470	1213.499161320057	16
0	3481	1216.099824368101	17
0	3483	1217.155403120886	18
0	3484	1218.116666890212	17
0	3489	1218.683241019714	16
0	3497	1221.473030159288	17
0	3498	1223.768718025941	16
0	3503	1225.978705510796	15
0	3510	1231.470983966251	14
0	3515	1231.705545210491	13
0	3520	1232.027533273711	12
0	3527	1235.42417979302	11
0	3533	1237.765267145232	12
0	3535	1238.826581223955	13
0	3539	1245.573132116261	14
0	3543	1250.767760604633	15
0	3544	1254.790998401947	14
0	3550	1255.101197815921	13
0	3555	1255.225115891799	12
0	3560	1255.526384251924	11
0	3564	1255.706344798996	12
0	3571	1260.538211034458	11
0	3577	1261.189618300254	12
0	3580	1261.346100321359	13
0	3581	1262.747545971333	12
0	3588	1263.540176656833	13
0	3589	1264.19542627121	12
0	3594	1264.62327983115	11
0	3601	1266.017371150717	12
0	3602	1266.658069469663	11
0	3607	1267.809169052526	10
0	3614	1271.661038870656	9
0	3620	1273.056952709462	10
0	3621	1275.354186275362	9
0	3626	1275.943789557152	8
0	3632	1277.137673826463	9
0	3634	1278.806010438864	8
0	3641	1281.119935467036	7
0	3650	1286.837205666593	6
0	3655	1289.449161958269	5
0	3661	1291.73099889335	4
0	3666	1292.127006646011	3
0	3670	1299.896817791002	4
0	3674	1300.554161169947	5
0	3676	1302.319483828403	6
0	3683	1304.877232504268	7
0	3688	1308.946459018825	8
0	3690	1310.113406141988	9
0	3692	1310.21475186667	10
0	3693	1311.022109550682	9
0	3698	1311.864515173238	8
0	3703	1312.04571170316	7
0	3707	1312.068780554207	8
0	3711	1312.747325607834	9
0	3715	1314.085414130411	10
0	3718	1315.008875686882	11
0	3719	1315.684315667139	10
0	3725	1316.427758077578	9
0	3732	1317.228880041777	10
0	3736	1318.810305982223	9
0	3743	1319.907036607298	8
0	3748	1320.02471411262	7
0	3753	1321.462691225103	6
0	3757	1321.501735112935	7
0	3763	1322.535465650151	6
0	3770	1323.652256470122	7
0	3771	1323.713818171585	6
0	3778	1325.491669843073	5
0	3785	1327.076006918481	4
0	3791	1328.090695216206	5
0	3793	1328.9452506226	6
0	3794	1331.749403624665	5
0	3798	1333.641070904464	6
0	3801	1334.625829339319	5
0	3806	1336.892534806159	4
0	3811	1340.712935680634	3
0	3818	1346.672213718455	2
0	3822	1349.740897897525	3
0	3824	1350.842018853667	4
0	3829	1352.195640613928	5
0	3831	1353.476361092699	6
0	3834	1355.174422028321	5
0	3839	1355.332466363922	4
0	3849	1359.279628332676	5
0	3853	1360.782516271039	6
0	3856	1366.305045367536	5
0	3861	1367.566058911166	4
0	3870	1371.44418082659	5
0	3872	1372.589115741389	6
0	3876	1375.30719156973	5
0	3882	1378.747171057674	6
0	3883	1378.753106685679	5
0	3891	1380.266186026171	6
0	3893	1380.552055386501	7
0	3894	1381.088838028127	6
0	3905	1385.534016217474	5
0	3910	1387.194223290259	4
0	3918	1389.602313417009	3
0	3924	1390.010094142396	2
0	3931	1392.059580410734	3
0	3932	1394.095940489922	2
0	3938	1394.330381639459	1
0	3943	1395.248911427851	0
0	3975	1401.235038961821	1
0	3980	1404.509749795184	0
0	3987	1405.511550311473	1
0	3988	1406.14252471635	0
0	4007	1415.758950062677	1
0	4009	1415.958468719113	2
0	4014	1421.576609917622	1
0	4019	1421.892893054041	0
0	4039	1426.755983207319	1
0	4041	1426.904140948952	2
0	4043	1427.697822624903	3
0	4046	1428.887733518716	2
0	4053	1430.799678661601	3
0	4055	1431.29298722759	2
0	4061	1433.329546670018	1
0	4067	1433.567048783775	2
0	4070	1435.07873868622	1
0	4075	1435.434945599447	0
0	4103	1441.573142909033	1
0	4104	1442.170848190382	0
0	4113	1447.779522255057	1
0	4114	1448.233796106632	0
0	4120	1448.769872749069	1
0	4124	1449.157155420767	2
0	4125	1449.710105848888	1
0	4131	1450.062872056078	0
0	4154	1454.152477322902	1
0	4156	1454.26350369812	2
0	4157	1455.939003139285	1
0	4163	1456.279652917664	2
0	4164	1456.381888573592	1
0	4172	1458.082984484841	2
0	4173	1459.534067263428	1
0	4178	1460.929312851645	0
0	4198	1467.43624716417	1
0	4199	1472.656065054195	0
0	4219	1481.49322179745	1
0	4222	1481.85210707637	0
0	4229	1484.998193256029	1
0	4231	1485.320098744922	2
0	4233	1487.304259023591	3
0	4235	1487.373460392629	4
0	4236	1488.699229094551	3
0	4242	1490.352003454581	2
0	4247	1491.636199485169	1
0	4258	1496.204547297706	0
0	4273	1498.645013308172	1
0	4275	1499.126295838273	2
0	4279	1500.894028997998	3
0	4280	1500.899255183072	2
0	4287	1501.636484384749	3
0	4289	1503.989071462414	2
0	4295	1505.191464497083	3
0	4298	1507.411989411267	2
0	4305	1512.826689581562	3
0	4307	1515.05083932583	4
0	4310	1515.675569919188	3
0	4316	1516.406737700659	2
0	4323	1516.569993161224	3
0	4328	1518.539786630086	2
0	4334	1518.990751230738	3
0	4335	1519.791569840748	2
0	4340	1519.954707680564	1
0	4347	1525.655554884576	0
0	4354	1526.150967948807	1
0	4355	1526.302442260913	0
0	4361	1528.625177421581	1
0	4363	1528.775633081566	2
0	4365	1532.152072126613	3
0	4366	1534.744633220163	2
0	4372	1534.847182178248	3
0	4375	1536.49068603173	4
0	4379	1537.839187310041	5
0	4381	1539.945594873166	4
0	4388	1541.565858999578	5
0	4389	1542.893409266406	4
0	4394	1543.008281470451	3
0	4400	1545.470501711204	4
0	4402	1545.604487413953	5
0	4409	1548.954243657578	4
0	4413	1552.135709777972	5
0	4415	1553.106513894489	6
0	4417	1553.358508815342	7
0	4420	1555.097818966104	6
0	4426	1559.428314447226	5
0	4431	1559.800642871518	4
0	4437	1562.178912631191	5
0	4440	1564.399291537847	4
0	4444	1564.995305672916	5
0	4446	1566.178315952932	6
0	4454	1570.559600796364	5
0	4460	1571.285758611072	4
0	4466	1573.019436267937	5
0	4467	1574.491644067297	4
0	4473	1575.449374799745	5
0	4474	1576.545254108362	4
0	4487	1579.938876433217	5
0	4488	1580.27253739692	4
0	4493	1581.402234518428	3
0	4497	1581.773216136202	4
0	4499	1582.895873248078	5
0	4503	1584.176117871548	6
0	4506	1589.488007712017	5
0	4513	1593.7100765844	4
0	4519	1598.72199016596	3
0	4524	1598.827523956272	2
0	4528	1600.40683600422	3
0	4532	1602.469669115881	2
0	4538	1605.611851939737	1
0	4543	1607.994382533276	0
0	4560	1609.709696140326	1
0	4562	1612.332509963684	0
0	4571	1615.800521765234	1
0	4572	1618.929447934813	0
0	4583	1621.307939919056	1
0	4585	1621.44515254085	2
0	4586	1622.896445080288	1
0	4594	1625.348524884421	2
0	4596	1627.834060012888	3
0	4597	1628.723681165447	2
0	4602	1629.926073941072	1
0	4607	1631.567400438103	0
0	4617	1633.862270847511	1
0	4622	1639.760011168658	2
0	4623	1640.298111566227	1
0	4630	1640.575731968874	0
0	4646	1646.828500934345	1
0	4648	1647.999078888044	2
0	4649	1648.583495782127	1
0	4657	1651.775692248399	0
0	4674	1657.792066885773	1
0	4678	1658.90590089501	2
0	4680	1660.49081148962	3
0	4681	1661.94794329746	2
0	4689	1662.556734864028	1
0	4697	1662.883877246768	0
0	4706	1664.211385649174	1
0	4709	1668.838389169695	0
0	4720	1672.962214871737	1
0	4721	1673.440704585176	0
0	4729	1677.967100866705	1
0	4730	1678.631295923236	0
0	4738	1682.938200406593	1
0	4740	1683.99721120719	2
0	4741	1684.273933499598	1
0	4747	1684.755699079294	2
0	4748	1685.45449225403	1
0	4754	1685.701267870502	0
0	4760	1686.85220810463	1
0	4765	1690.900687049428	0
0	4801	1698.762200615279	1
0	4803	1701.529082082812	2
0	4809	1704.17468699734	3
0	4810	1704.69866618175	2
0	4815	1705.331837348562	1
0	4820	1706.143137742587	0
0	4824	1706.859027956898	1
0	4830	1710.265278071128	0
0	4837	1710.920341873819	1
0	4839	1711.217914412792	2
0	4843	1713.34826143255	1
0	4850	1714.868522165398	2
0	4854	1716.29949970244	3
0	4855	1716.589227465072	2
0	4860	1717.747029366552	1
0	4865	1718.564507313233	0
0	4869	1718.637852769556	1
0	4874	1720.861582433286	2
0	4875	1721.904296913672	1
0	4884	1726.181328066609	0
0	4893	1728.208651051379	1
0	4901	1730.438554737392	2
0	4902	1737.985576663207	1
0	4907	1740.689177194391	0
0	4919	1741.898795254464	1
0	4920	1744.069337776036	0
0	4928	1744.649305864964	1
0	4932	1745.986323036211	0
0	4943	1747.864753166594	1
0	4945	1749.067377923145	0
0	4955	1749.767356863712	1
0	4958	1753.136341717302	0
0	4969	1755.098919083945	1
0	4974	1756.7919962285	0
0	4980	1757.465180961521	1
0	4983	1759.469837909122	2
0	4984	1761.504621721305	1
0	4989	1761.590094272093	0
0	5011	1764.540963784789	1
0	5013	1766.868546818551	2
0	5014	1769.020291985559	1
0	5020	1769.429436513226	2
0	5021	1771.581269583649	1
0	5030	1773.921353391186	2
0	5032	1774.313924241028	3
0	5033	1774.587251700791	2
0	5038	1775.081896784687	1
0	5047	1780.001686219418	0
0	5051	1780.589094090381	1
0	5054	1781.346724885203	0
0	5084	1792.641664467703	1
0	5088	1794.380415390647	2
0	5089	1795.042180165681	1
0	5095	1795.775242218621	2
0	5097	1798.052407963928	1
0	5104	1798.846954394817	2
0	5105	1799.085413194412	1
0	5113	1801.993372266469	2
0	5118	1804.963306191756	3
0	5119	1808.264518257817	2
0	5129	1815.812243783005	1
0	5135	1819.66505014362	0
0	5141	1820.033741705928	1
0	5145	1821.942487147728	0
0	5152	1824.225279018464	1
0	5154	1826.924918237178	2
0	5155	1827.199976980764	1
0	5164	1831.531263618568	0
0	5184	1839.258899358427	1
0	5185	1839.464084573002	0
0	5191	1839.9531018403	1
0	5197	1841.914225334312	0
0	5204	1842.733943572135	1
0	5205	1844.090573948562	0
0	5216	1846.221594402712	1
0	5219	1846.593681535989	2
0	5220	1846.779989752422	1
0	5226	1847.219533015438	2
0	5229	1847.769454041871	3
0	5233	1850.584686489806	2
0	5241	1852.442290589679	1
0	5247	1852.672388660831	2
0	5249	1852.96463482377	3
0	5250	1854.238040846951	2
0	5255	1854.306961708135	1
0	5266	1856.823442787805	0
0	5276	1866.67072676373	1
0	5277	1866.707522700594	0
0	5290	1871.528161923961	1
0	5294	1875.637912324705	2
0	5298	1876.836201952915	3
0	5299	1879.155555900577	2
0	5307	1881.592738135831	1
0	5313	1882.216203618702	0
0	5330	1886.874777090077	1
0	5333	1888.231157514149	0
0	5339	1888.618365335541	1
0	5342	1889.232016378536	0
0	5350	1890.321082790711	1
0	5356	1895.20985014648	2
0	5358	1895.571630179721	3
0	5361	1897.09384833608	2
0	5365	1898.016036493716	3
0	5371	1903.917514571504	4
0	5375	1908.333961921996	3
0	5381	1909.55424419942	4
0	5384	1912.418641395583	3
0	5390	1914.294176921133	2
0	5395	1915.273561819128	1
0	5402	1916.270620426933	0
0	5406	1917.188846592329	1
0	5408	1918.591963592693	2
0	5414	1920.34244134935	3
0	5418	1923.205279214722	4
0	5419	1924.035442506837	3
0	5426	1926.599866911195	4
0	5427	1929.295653572674	3
0	5432	1931.910622126919	2
0	5441	1935.077426460426	1
0	5447	1935.707482246879	2
0	5449	1936.541192151482	3
0	5453	1937.614774315784	2
0	5461	1938.053428986302	3
0	5463	1938.688370176338	2
0	5470	1939.548060046874	1
0	5475	1939.911160634021	0
0	5481	1941.164404475979	1
0	5484	1943.047799115053	0
0	5488	1944.139185677206	1
0	5490	1944.206248988464	2
0	5497	1948.376795134733	1
0	5503	1948.900214182291	2
0	5505	1951.987049969547	1
0	5511	1952.22611666627	0
0	5517	1952.430608257868	1
0	5519	1954.316843960027	0
0	5533	1958.55245099741	1
0	5534	1958.96665199392	0
0	5554	1965.971851466133	1
0	5556	1965.976102957551	2
0	5557	1966.411725851872	1
0	5563	1966.761241472087	2
0	5565	1968.269672026924	3
0	5566	1975.584406540747	2
0	5571	1976.593194807966	1
0	5576	1977.606399577613	0
0	5601	1989.88154606339	1
0	5602	1991.446224457705	0
0	5616	1996.292795971235	1
0	5627	1999.779539922947	0
0	5635	2002.898562781263	1
0	5636	2003.147333246599	0
0	5645	2005.946374179337	1
0	5646	2006.144032322911	0
0	5658	2009.792351497113	1
0	5659	2013.677304849144	0
0	5678	2019.557837735639	1
0	5679	2021.075085187391	0
0	5695	2023.904558011756	1
0	5700	2025.478984080813	0
0	5731	2033.793597102645	1
0	5736	2038.664935640276	0
0	5743	2041.439485163688	1
0	5744	2042.36306802873	0
0	5750	2044.01579911355	1
0	5752	2044.295778726944	0
0	5770	2049.788809123478	1
0	5774	2052.769734116861	2
0	5775	2053.547774727063	1
0	5783	2054.693646413386	0
0	5796	2056.187060047837	1
0	5798	2057.487825678411	2
0	5799	2058.560257706824	1
0	5804	2059.667759706369	0
0	5835	2073.073308078423	1
0	5836	2074.047839707867	0
0	5842	2074.079767123932	1
0	5843	2074.123822489642	0
0	5869	2080.503102082277	1
0	5872	2081.478402019491	0
0	5879	2081.934646834527	1
0	5881	2082.551603107116	2
0	5882	2082.567642766542	1
0	5892	2094.759802796402	2
0	5896	2095.688275921523	3
0	5898	2095.876061964431	4
0	5902	2099.607004200372	5
0	5903	2100.122428804596	4
0	5908	2104.433409362595	3
0	5914	2104.730524193597	4
0	5916	2105.16136274045	3
0	5922	2105.341993794739	4
0	5925	2105.712352941699	5
0	5926	2106.612574927647	4
0	5935	2107.858018525048	3
0	5946	2111.349349252773	4
0	5947	2113.142840485996	3
0	5954	2115.633901324957	2
0	5960	2116.271018507832	3
0	5965	2119.240096093353	2
0	5971	2119.43950515039	1
0	5977	2122.172747178631	0
0	5994	2124.520181505779	1
0	5996	2127.367673158639	2
0	5997	2127.912509375067	1
0	6002	2127.989598381369	0
0	6008	2128.690391458472	1
0	6014	2132.49599665949	2
0	6015	2132.672641163511	1
0	6020	2132.818280216717	0
0	6044	2137.668984888997	1
0	6046	2138.330976986285	2
0	6048	2139.101780793394	3
0	6050	2139.851059340252	4
0	6052	2142.158164262172	5
0	6053	2143.395260208404	4
0	6061	2148.435173885981	3
0	6069	2150.581213602273	2
0	6074	2150.898210062599	1
0	6079	2151.286520040304	0
0	6096	2156.373147715786	1
0	6099	2157.045009242305	0
0	6116	2158.543771789987	1
0	6119	2159.572730343645	0
0	6128	2161.242360337283	1
0	6129	2161.672125633083	0
0	6167	2176.527130548628	1
0	6171	2178.357345029068	2
0	6172	2179.086799811813	1
0	6177	2179.221291989368	0
0	6186	2183.293652540421	1
0	6190	2183.485429883512	2
0	6195	2184.966148500876	3
0	6199	2187.74534248937	4
0	6203	2189.815539118029	5
0	6205	2190.904799851962	6
0	6206	2191.985546257727	5
0	6213	2193.809851888408	6
0	6214	2196.799490408219	5
0	6221	2198.936513874621	4
0	6228	2202.222642230516	5
0	6233	2203.705066818114	4
0	6239	2204.794644006534	5
0	6241	2205.67364955509	4
0	6246	2205.836934909294	3
0	6254	2207.852214930602	4
0	6258	2210.170106414052	3
0	6263	2212.011633684222	2
0	6268	2221.540435374385	1
0	6273	2222.15605727033	0
0	6277	2222.266384948046	1
0	6279	2224.78146032796	2
0	6283	2226.252436675923	3
0	6284	2226.769156371348	2
0	6291	2228.749348141997	1
0	6297	2230.837056119953	0
0	6309	2234.737225976467	1
0	6310	2235.102232319253	0
0	6331	2246.600090181548	1
0	6332	2246.698503920162	0
0	6338	2248.294286325604	1
0	6343	2252.122741588668	2
0	6344	2254.670955093462	1
0	6350	2255.290614499955	0
0	6367	2263.71939278974	1
0	6371	2265.291301102528	2
0	6375	2267.716564522477	3
0	6376	2269.436586468482	2
0	6382	2269.809110695691	1
0	6387	2270.860809747946	0
0	6393	2271.859060737204	1
0	6396	2274.37554970524	0
0	6403	2275.146030632219	1
0	6405	2276.699295375818	0
0	6425	2279.722379177882	1
0	6432	2280.742867259902	2
0	6433	2282.117339891116	1
0	6438	2283.920378291366	0
0	6460	2291.445416350876	1
0	6462	2292.42341716275	2
0	6464	2298.944808194793	1
0	6469	2300.045151501401	0
0	6478	2300.331143712358	1
0	6483	2302.567042023293	0
0	6494	2307.691153752686	1
0	6498	2310.123343407496	0
0	6509	2310.92346155075	1
0	6510	2311.217991594042	0
0	6514	2311.373243193043	1
0	6518	2312.623050557758	2
0	6520	2313.719402726097	1
0	6525	2313.748906576083	0
0	6533	2321.617197385634	1
0	6535	2325.277163965504	2
0	6538	2325.636273055131	1
0	6544	2326.733662573013	2
0	6545	2326.776807823024	1
0	6551	2329.969794005712	2
0	6553	2331.016418713239	3
0	6556	2333.821358903614	2
0	6562	2335.064721007043	1
0	6567	2335.085428040189	0
0	6571	2335.248222273844	1
0	6574	2339.951268447558	0
0	6580	2341.504900038366	1
0	6582	2341.518422116298	2
0	6588	2346.106438153439	3
0	6591	2347.376362108125	2
0	6597	2348.428494747688	3
0	6598	2348.432432217383	2
0	6605	2350.960647743749	1
0	6610	2351.381366361036	0
0	6635	2355.293178638478	1
0	6636	2355.428982306027	0
0	6667	2369.705505494873	1
0	6671	2372.116604847716	2
0	6675	2376.145319538866	3
0	6676	2377.097329932258	2
0	6682	2381.186946996663	1
0	6688	2384.315043238756	0
0	6708	2390.804286083823	1
0	6710	2390.819877790113	2
0	6712	2391.192477359935	3
0	6716	2394.784722736828	4
0	6717	2395.95484476891	3
0	6722	2396.307374168126	2
0	6728	2400.986027231718	1
0	6733	2401.395634643459	0
0	6737	2402.370551914359	1
0	6739	2409.351660211023	2
0	6743	2410.422242813814	3
0	6746	2414.446917164388	2
0	6755	2417.216061424079	1
0	6760	2418.32215413706	0
0	6769	2420.368780260954	1
0	6770	2421.617237038867	0
0	6778	2424.084923867274	1
0	6782	2425.746167408043	2
0	6783	2425.881076664076	1
0	6789	2426.469033968475	0
0	6807	2434.293533038376	1
0	6808	2434.535368163683	0
0	6814	2434.549341599074	1
0	6815	2434.763275551055	0
0	6827	2437.831839066122	1
0	6832	2440.676872286473	0
0	6838	2440.716703982231	1
0	6842	2442.578545212072	0
0	6876	2450.055732496947	1
0	6877	2452.420830675898	0
0	6886	2452.982173629308	1
0	6890	2453.677316312041	2
0	6894	2454.85926418697	1
0	6902	2455.930282759991	0
0	6913	2457.074386511673	1
0	6915	2459.208537083176	2
0	6919	2461.042075795962	3
0	6920	2461.405928883492	2
0	6928	2462.036449385091	3
0	6931	2465.806561470897	2
0	6937	2465.931893229548	3
0	6938	2466.897384840409	2
0	6946	2468.353837751411	3
0	6947	2468.619906800145	2
0	6953	2470.414159146059	1
0	6959	2470.425571380972	2
0	6960	2471.878832971899	1
0	6964	2473.188713107687	2
0	6970	2476.779752261846	1
0	6975	2478.892416880194	0
0	6981	2478.97967073433	1
0	6982	2479.914025464106	0
0	7007	2489.217827518857	1
0	7008	2490.679740366217	0
0	7018	2491.035892769326	1
0	7020	2491.329197800716	2
0	7022	2492.493382144826	3
0	7027	2493.380704082476	2
0	7032	2494.470568396398	1
0	7037	2494.935492010304	0
0	7043	2496.038160573039	1
0	7046	2496.990952661954	0
0	7058	2499.697900225606	1
0	7060	2500.812180116208	0
0	7071	2502.927481143814	1
0	7074	2506.008987268933	0
0	7086	2508.851682357996	1
0	7088	2508.947898321606	2
0	7089	2509.095102180731	1
0	7096	2512.380307198971	0
0	7110	2513.739403652547	1
0	7115	2514.269786552214	2
0	7116	2514.279271439638	1
0	7124	2514.436223722565	2
0	7126	2514.467501502579	3
0	7129	2514.74379954078	4
0	7131	2514.765207770886	5
0	7133	2515.063805965299	6
0	7135	2518.156850477551	5
0	7147	2522.238890052812	4
0	7154	2523.586925618128	3
0	7161	2524.559562123817	2
0	7167	2524.588398826776	3
0	7168	2525.217674531616	2
0	7174	2525.821423242463	1
0	7179	2527.246384407329	0
0	7192	2534.086466931995	1
0	7193	2534.267342282888	0
0	7201	2535.756981722452	1
0	7202	2536.006965727212	0
0	7223	2540.143750453034	1
0	7225	2544.219820428165	2
0	7227	2544.705138004667	3
0	7230	2544.712653609437	2
0	7238	2550.782925631808	1
0	7245	2552.32781032219	2
0	7247	2554.436804550929	3
0	7248	2555.327923185238	2
0	7254	2555.933337133345	1
0	7260	2556.02841670301	2
0	7262	2556.154725962203	3
0	7264	2558.090600039853	2
0	7270	2558.236623551072	1
0	7275	2558.644756337476	0
0	7281	2558.786907764119	1
0	7282	2559.95602376221	0
0	7288	2560.383819926248	1
0	7292	2561.339858334394	2
0	7294	2562.23671577482	3
0	7297	2563.128054435462	2
0	7301	2563.323974632583	3
0	7303	2566.014219949515	4
0	7315	2568.054996552632	5
0	7317	2568.055117545372	6
0	7318	2570.346264316311	5
0	7323	2573.772500659804	4
0	7327	2573.773300847955	5
0	7331	2577.550395749996	6
0	7337	2579.757637067643	7
0	7343	2582.739769762491	8
0	7345	2588.01653820067	9
0	7347	2588.289827700329	10
0	7351	2588.779409642831	11
0	7353	2590.085039679778	12
0	7356	2590.542017781706	11
0	7362	2593.522322144222	12
0	7365	2595.638077233644	11
0	7375	2597.510716246645	12
0	7376	2597.897446988512	11
0	7385	2598.568704701593	12
0	7387	2599.010567398288	13
0	7391	2602.296393107534	14
0	7393	2602.718406308703	15
0	7397	2604.319232005623	16
0	7398	2604.668908568975	15
0	7403	2605.319531645339	14
0	7408	2608.512780973462	13
0	7415	2610.292449608108	12
0	7424	2612.098958194607	13
0	7425	2612.301623482546	12
0	7436	2618.998885828566	13
0	7437	2619.29505792777	12
0	7444	2619.731365803236	13
0	7446	2620.2138263844	14
0	7450	2620.306651846135	15
0	7454	2623.57084749479	16
0	7455	2626.934730291921	15
0	7460	2627.516137221521	14
0	7465	2628.279595833641	13
0	7473	2630.639546304506	14
0	7476	2635.590745744691	13
0	7481	2638.111217403067	12
0	7486	2638.570161628398	11
0	7490	2638.659892864551	12
0	7496	2641.178955107096	13
0	7499	2642.695033922795	12
0	7506	2643.081683437102	11
0	7513	2643.463888326893	12
0	7516	2644.512133260533	13
0	7521	2647.696772418596	12
0	7527	2648.005216760166	11
0	7533	2648.815439326694	12
0	7535	2649.616797329111	13
0	7542	2655.909792643426	14
0	7544	2656.341392063552	15
0	7548	2657.381506947878	16
0	7549	2658.727490711266	15
0	7554	2659.163006103449	14
0	7562	2662.302915302488	13
0	7573	2671.832967139045	12
0	7578	2671.896759485539	11
0	7584	2672.214606642959	12
0	7586	2672.980092806666	13
0	7587	2673.553496379628	12
0	7593	2675.695066030754	11
0	7598	2676.192238718425	10
0	7604	2676.532954433625	11
0	7607	2677.910203364711	10
0	7613	2679.083252933451	9
0	7619	2679.740528253775	10
0	7622	2680.243355423368	11
0	7623	2684.627943690208	10
0	7629	2685.430954201203	9
0	7637	2687.013870572646	10
0	7638	2688.90485539268	9
0	7644	2690.010489481936	10
0	7645	2690.763005223131	9
0	7655	2693.073583310704	10
0	7657	2693.141100913946	11
0	7659	2693.975286902516	12
0	7661	2695.556873571159	13
0	7662	2695.594054508727	12
0	7668	2697.443691688334	13
0	7669	2697.620170950141	12
0	7674	2698.2399716336	11
0	7680	2700.41606179673	12
0	7681	2703.748895268377	11
0	7686	2706.829524996281	10
0	7692	2709.509459378475	11
0	7696	2710.524833678845	12
0	7698	2711.198768869204	13
0	7701	2711.3852628511	12
0	7705	2712.73714563168	13
0	7709	2713.690544302554	14
0	7711	2715.411153250096	15
0	7713	2715.763215112727	16
0	7715	2715.914796391024	17
0	7720	2717.315338851182	16
0	7733	2726.096662673134	17
0	7734	2730.017934785268	16
0	7739	2730.277829742011	15
0	7747	2732.261088117429	16
0	7748	2737.194161551868	15
0	7754	2744.231055204482	16
0	7760	2748.675490063092	17
0	7761	2749.249798827643	16
0	7767	2750.477087737551	17
0	7772	2755.236302703353	16
0	7779	2758.289570696378	15
0	7785	2758.855228892573	16
0	7786	2758.96107170427	15
0	7792	2759.312371870696	16
0	7794	2759.682799130023	17
0	7797	2762.942903359182	16
0	7802	2762.975493806161	15
0	7809	2764.288914684633	16
0	7810	2765.667582912942	15
0	7817	2767.034778378968	16
0	7818	2767.147139405457	15
0	7823	2767.811231021887	14
0	7831	2776.499880509661	13
0	7838	2778.499515657638	14
0	7839	2778.879726548608	13
0	7844	2779.681136604037	12
0	7850	2780.612988789138	13
0	7852	2780.780467339557	14
0	7854	2781.883930104948	15
0	7855	2783.248553343563	14
0	7861	2783.509297647085	15
0	7867	2784.896604514147	16
0	7868	2787.016636311649	15
0	7874	2787.028386212178	16
0	7879	2788.788009398189	17
0	7883	2790.077400530738	18
0	7884	2790.24667806714	17
0	7889	2790.447145697539	16
0	7896	2792.07792393488	17
0	7898	2792.729896376043	16
0	7904	2794.972287723794	15
0	7910	2794.992090080808	16
0	7913	2796.319939052211	17
0	7915	2797.261938051224	18
0	7916	2798.633065000571	17
0	7922	2799.534782058314	18
0	7926	2804.275260294119	19
0	7928	2804.69110543111	20
0	7929	2807.714278004806	19
0	7935	2811.288390665527	18
0	7940	2812.333091091883	17
0	7948	2815.070584016494	16
0	7954	2816.274730860624	15
0	7959	2816.403180383317	14
0	7964	2817.802544408703	13
0	7970	2819.497231208887	14
0	7972	2820.150969638475	15
0	7973	2820.724568432046	14
0	7979	2821.659108909919	15
0	7982	2824.748193854691	16
0	7989	2826.566335480351	17
0	7991	2826.595469707638	18
0	7992	2826.609828842901	17
0	7998	2827.042849333051	18
0	8000	2830.589127762386	17
0	8006	2831.277619364636	18
0	8008	2832.005669826767	19
0	8009	2832.699926883945	18
0	8015	2833.226157670526	19
0	8017	2834.189046061775	20
0	8022	2840.9894934134	21
0	8026	2842.427634551246	22
0	8030	2843.749484628247	23
0	8032	2844.292857085594	24
0	8035	2844.938264629996	23
0	8042	2846.920201651135	22
0	8048	2849.017029168026	23
0	8055	2851.489415032698	24
0	8056	2851.724310973588	23
0	8063	2855.391866898062	22
0	8071	2861.477463920631	23
0	8074	2863.234855791169	22
0	8080	2866.466966137347	21
0	8087	2868.044234900071	20
0	8092	2868.220652404487	19
0	8097	2868.230917116094	18
0	8105	2871.05138702159	19
0	8114	2874.639195405092	18
0	8119	2876.819870004055	17
0	8124	2877.319104291583	16
0	8130	2878.759280408307	17
0	8131	2880.406893055675	16
0	8135	2881.376857896671	17
0	8142	2885.262893548965	18
0	8144	2885.927124542959	19
0	8148	2886.690492441659	20
0	8150	2889.963070415856	21
0	8153	2892.749197148346	20
0	8161	2896.734118924445	19
0	8167	2897.23241650827	20
0	8168	2897.721668934563	19
0	8176	2902.848998171087	20
0	8177	2903.42945340689	19
0	8183	2904.415032912638	20
0	8184	2904.4452214197	19
0	8192	2906.460379546797	18
0	8199	2907.501222426731	17
0	8204	2907.579681497673	16
0	8210	2907.724777972224	17
0	8215	2911.761020646896	16
0	8221	2912.048254070125	17
0	8223	2912.328770129348	18
0	8224	2913.390068919449	17
0	8233	2916.502052580859	16
0	8238	2918.677381486301	15
0	8243	2918.930399395064	14
0	8251	2922.273552241454	15
0	8254	2928.60587015722	14
0	8259	2931.645605356814	13
0	8268	2935.694117248727	12
0	8273	2937.181189775819	11
0	8279	2937.435510774271	12
0	8281	2938.102946822755	11
0	8286	2938.493420353441	10
0	8293	2940.295575051981	11
0	8294	2941.179441071701	10
0	8300	2942.31729311943	11
0	8302	2943.120703599445	10
0	8309	2944.54488361456	9
0	8315	2946.425548078062	10
0	8317	2946.823148402215	9
0	8324	2947.90579193954	10
0	8326	2950.010584034918	11
0	8327	2950.852918889892	10
0	8333	2952.267623503594	11
0	8337	2960.239474417741	12
0	8339	2963.154126217394	13
0	8340	2963.726443540336	12
0	8347	2965.119538076413	13
0	8348	2965.482934277935	12
0	8353	2966.574549165387	11
0	8358	2967.872906798118	10
0	8363	2975.752997966716	9
0	8377	2985.345344089503	10
0	8379	2985.562484517941	11
0	8380	2986.264789277362	10
0	8386	2986.911247821895	11
0	8387	2988.478022772393	10
0	8393	2988.600732602907	11
0	8394	2988.915874889471	10
0	8402	2993.070987246703	9
0	8408	2995.399308540149	10
0	8409	2995.565228529629	9
0	8413	2995.678183735778	10
0	8415	2996.433684016559	11
0	8418	2997.944973986429	10
0	8425	3000.992772273463	9
0	8434	3004.780325636289	8
0	8440	3005.1008366981	9
0	8442	3007.300959807378	8
0	8447	3007.325518178672	7
0	8458	3010.993009552657	6
0	8462	3011.160647327919	7
0	8464	3011.393007539554	8
0	8469	3014.158502827427	7
0	8478	3025.10734437169	6
0	8484	3025.961890238603	5
0	8490	3026.47750185921	4
0	8498	3029.106010966809	3
0	8504	3032.659756856088	2
0	8513	3034.42358818976	3
0	8515	3037.068086892252	4
0	8516	3038.501735914535	3
0	8524	3040.819132144675	2
0	8530	3044.848212695987	1
0	8536	3046.479927543958	0
0	8545	3047.351020546137	1
0	8547	3048.122341391116	2
0	8550	3049.939975097781	1
0	8555	3050.131658823014	0
0	8587	3064.056212856601	1
0	8592	3068.01790662838	0
0	8604	3070.522624668936	1
0	8605	3070.891775008799	0
0	8611	3072.442993567788	1
0	8612	3072.630626899572	0
0	8624	3073.711051141961	1
0	8630	3076.681079824715	2
0	8638	3080.515732394705	1
0	8643	3081.387778831154	0
0	8652	3083.114711326861	1
0	8654	3084.474210664447	0
0	8660	3084.653050781982	1
0	8662	3085.835833992667	0
0	8676	3095.492784115552	1
0	8680	3098.681941302139	0
0	8686	3099.387931741024	1
0	8687	3101.19718283483	0
0	8694	3106.96256319893	1
0	8695	3108.178130770154	0
0	8711	3112.816345457892	1
0	8715	3118.020484304247	2
0	8719	3118.897670693866	3
0	8721	3120.531061843771	4
0	8723	3122.52607113754	5
0	8724	3123.912468116671	4
0	8730	3124.391494935426	5
0	8731	3125.596931169643	4
0	8736	3126.03655761656	3
0	8743	3127.604716382209	2
0	8749	3129.426747223412	3
0	8752	3130.797021850912	2
0	8756	3131.386081593798	3
0	8760	3132.808194969422	4
0	8761	3133.179596134457	3
0	8768	3134.412448898178	4
0	8771	3134.860610762796	3
0	8778	3138.300915396402	4
0	8779	3140.164689389885	3
0	8785	3141.244656477576	4
0	8786	3141.916133645618	3
0	8791	3144.025139664285	2
0	8797	3144.667488868426	1
0	8802	3144.677418458499	0
0	8826	3149.315535953583	1
0	8833	3151.475430204599	2
0	8834	3153.938386891844	1
0	8841	3155.818830566661	2
0	8842	3158.836401179182	1
0	8847	3159.223544296617	0
0	8865	3173.270521761174	1
0	8866	3174.72618140643	0
0	8889	3185.383160723153	1
0	8890	3185.518606374414	0
0	8907	3188.720780639251	1
0	8910	3190.438371059947	0
0	8921	3195.212565348386	1
0	8923	3195.328150714665	2
0	8925	3195.709651024445	3
0	8927	3196.922047731486	4
0	8930	3197.693405706346	3
0	8936	3198.542922419443	4
0	8939	3200.037769945278	3
0	8946	3200.554666937107	4
0	8947	3201.92511684765	3
0	8952	3202.347496830896	2
0	8966	3205.377215743357	3
0	8968	3206.153733470243	4
0	8969	3206.492613125971	3
0	8978	3206.626784858238	2
0	8983	3206.807437374488	1
0	8988	3208.826539350622	0
0	8992	3209.45747463048	1
0	8995	3210.059619314276	0
0	9013	3219.164307089413	1
0	9015	3219.688501509073	2
0	9016	3222.238334621931	1
0	9021	3223.176506445448	0
0	9042	3227.751288526789	1
0	9045	3228.354902454458	0
0	9051	3228.671926708086	1
0	9054	3228.880987768114	2
0	9055	3229.708704909084	1
0	9066	3235.060044195005	2
0	9071	3240.785096513791	1
0	9082	3245.497662799792	0
0	9094	3246.487911630608	1
0	9099	3248.23184779573	0
0	9116	3252.615929977183	1
0	9117	3253.781375740868	0
0	9124	3255.641438479866	1
0	9128	3258.259222653719	2
0	9130	3259.259918662409	3
0	9132	3259.760729253854	4
0	9134	3261.849054397677	5
0	9135	3262.245111281298	4
0	9140	3262.31671852556	3
0	9145	3263.365666378073	2
0	9149	3266.639598500869	3
0	9153	3267.654239901852	4
0	9157	3270.359018376684	3
0	9162	3271.629800942352	2
0	9166	3271.812492194062	3
0	9169	3273.210941585618	2
0	9177	3278.251355955755	1
0	9186	3280.87941850191	2
0	9189	3282.691306061435	1
0	9196	3284.086819328205	0
0	9220	3292.672815501338	1
0	9223	3295.258566200524	0
0	9239	3303.839979293529	1
0	9241	3304.143882240669	2
0	9242	3305.318660377484	1
0	9247	3305.942938205363	0
0	9254	3308.270557264311	1
0	9257	3309.442170355429	2
0	9258	3309.908734911128	1
0	9264	3312.059361730322	0
0	9271	3313.157164233295	1
0	9272	3313.229074773453	0
0	9294	3316.070434655425	1
0	9297	3320.673694635153	0
0	9304	3325.836863697338	1
0	9305	3326.362627944884	0
0	9317	3329.379284636362	1
0	9319	3330.088881357765	2
0	9320	3330.468321462305	1
0	9327	3331.476388268571	2
0	9328	3336.755860923419	1
0	9335	3338.448507793283	2
0	9336	3339.433958682074	1
0	9342	3341.371168459903	2
0	9343	3341.725827178593	1
0	9349	3341.997479057097	2
0	9353	3342.398447576641	3
0	9356	3344.193213133584	2
0	9365	3345.874643954173	3
0	9368	3346.98664860499	4
0	9370	3347.111834656311	5
0	9371	3347.116790128745	4
0	9379	3349.216918885569	5
0	9381	3352.330628233716	4
0	9387	3357.471950157555	3
0	9392	3359.020757599643	2
0	9397	3359.086913140464	1
0	9406	3363.747244413663	0
0	9447	3384.512154119657	1
0	9448	3385.220708075032	0
0	9460	3386.602635467702	1
0	9464	3386.83557720392	2
0	9466	3388.953851738191	1
0	9472	3389.288164326948	2
0	9473	3389.6524211156	1
0	9481	3390.901508349129	2
0	9482	3391.535876710713	1
0	9491	3393.486140064918	2
0	9492	3393.785331682365	1
0	9497	3393.99243835234	0
0	9519	3402.170363738093	1
0	9526	3405.999507528418	0
0	9540	3409.42979993315	1
0	9545	3410.772375234532	0
0	9549	3411.497850394663	1
0	9555	3416.081688480658	0
0	9559	3420.145509105412	1
0	9561	3424.69478186361	2
0	9564	3427.77953295683	1
0	9570	3431.752606329758	2
0	9577	3433.415840996619	3
0	9578	3433.543311027752	2
0	9586	3437.1291668314	3
0	9591	3439.768420780876	4
0	9595	3441.338580859403	3
0	9600	3442.557290680999	2
0	9605	3444.223642135871	1
0	9610	3446.852684993191	0
0	9623	3454.829738807615	1
0	9624	3455.786188572122	0
0	9630	3456.087024979964	1
0	9632	3456.427397202995	0
0	9656	3464.583234180316	1
0	9661	3466.594976218761	0
0	9672	3467.966311644426	1
0	9674	3470.758875752754	0
0	9698	3478.834134568904	1
0	9699	3480.419134569572	0
0	9706	3480.662959045613	1
0	9708	3480.770075409339	2
0	9710	3481.221664668206	3
0	9711	3482.83663401695	2
0	9718	3484.720576437125	1
0	9724	3486.497911712828	0
0	9731	3488.064728599135	1
0	9733	3489.188483553957	2
0	9734	3491.022157921321	1
0	9746	3496.534254185487	2
0	9748	3497.993834446935	3
0	9749	3498.815699868341	2
0	9754	3499.197512628916	1
0	9759	3499.392374524863	0
0	9779	3507.385068834512	1
0	9781	3507.606352862682	2
0	9782	3510.944983577711	1
0	9790	3514.959518533004	0
0	9796	3515.447284457711	1
0	9798	3516.274733247043	2
0	9801	3517.50082086836	3
0	9802	3518.173975691273	2
0	9807	3519.028051068981	1
0	9824	3525.648717828649	0
0	9834	3527.636044587367	1
0	9835	3528.61518981933	0
0	9845	3530.219350447258	1
0	9846	3530.498513357298	0
0	9857	3532.371910353841	1
0	9859	3535.369659058796	0
0	9878	3541.341961325004	1
0	9880	3541.582015494307	2
0	9881	3544.910521325126	1
0	9887	3546.779463209944	0
0	9922	3558.712751896349	1
0	9927	3560.230158988996	0
0	9960	3567.523166021401	1
0	9962	3567.559868587315	2
0	9964	3572.756870826853	3
0	9968	3575.101075571828	4
0	9969	3575.489282778927	3
0	9974	3575.601449231292	2
0	9981	3578.182946322632	1
0	9988	3579.573456308133	2
0	9989	3579.816871143256	1
0	9995	3580.637001884244	0
0	10002	3583.006795737161	1
0	10003	3583.349885511683	0
0	10028	3593.640040081908	1
0	10030	3594.705167231723	2
0	10033	3602.161057598412	1
0	10040	3602.482409065706	2
0	10043	3605.18593945269	3
0	10045	3606.360376847685	4
0	10046	3606.942099340721	3
0	10052	3607.162508850274	4
0	10053	3608.407957463802	3
0	10057	3608.591828558771	4
0	10061	3613.456125599041	5
0	10065	3614.090844339972	4
0	10071	3614.318996358571	5
0	10073	3614.421325529064	6
0	10074	3614.696671122482	5
0	10078	3615.281482972936	6
0	10080	3615.937101498849	7
0	10085	3618.155001087916	8
0	10087	3618.883410429039	7
0	10093	3620.019526418095	6
0	10100	3624.248611584699	7
0	10102	3624.391908202895	8
0	10103	3624.981549089095	7
0	10110	3625.404966901538	8
0	10113	3629.987251052603	7
0	10118	3631.003728498506	6
0	10126	3631.585519920522	7
0	10127	3632.39866013587	6
0	10133	3632.439931902999	7
0	10134	3633.141072008354	6
0	10139	3633.30274869086	5
0	10146	3634.72454131143	4
0	10158	3641.573696963464	5
0	10160	3642.078575458532	6
0	10163	3644.864144648215	5
0	10168	3646.854437058076	4
0	10173	3647.394494052324	3
0	10181	3648.96858828297	2
0	10187	3651.089422848763	1
0	10193	3654.049528780992	0
0	10199	3655.941156511108	1
0	10201	3656.770855821877	2
0	10203	3658.23885129079	1
0	10210	3661.438635380856	0
0	10222	3662.61606292932	1
0	10224	3662.670093658956	2
0	10226	3668.407384329574	3
0	10229	3669.524485551978	2
0	10235	3670.499619375546	1
0	10241	3670.784460465663	2
0	10243	3671.271537481932	3
0	10246	3674.195106794384	4
0	10248	3674.208380648549	5
0	10251	3674.379186814991	6
0	10254	3675.979840768091	5
0	10260	3676.409814318376	4
0	10265	3677.637474891542	3
0	10272	3679.675545194245	2
0	10278	3681.296740448544	3
0	10281	3681.735136579516	4
0	10283	3681.91479655369	5
0	10284	3684.544574595542	4
0	10289	3685.728276309129	3
0	10295	3686.141287228883	4
0	10299	3687.67478421004	5
0	10301	3688.629901615258	6
0	10303	3691.707943017598	7
0	10306	3692.224696663776	6
0	10311	3692.725574478567	5
0	10318	3692.940213178538	4
0	10323	3694.248203133686	3
0	10329	3694.626703872279	4
0	10330	3694.783533530678	3
0	10334	3695.66037525171	4
0	10342	3703.193360246128	5
0	10343	3703.332649343885	4
0	10350	3703.906200526943	5
0	10351	3705.386927495547	4
0	10358	3707.373360706754	5
0	10360	3708.436569236516	6
0	10362	3708.496340303188	7
0	10363	3709.823419977398	6
0	10368	3711.084911592596	5
0	10380	3712.345299449915	6
0	10383	3715.685881508812	5
0	10389	3716.143151964505	6
0	10391	3717.434928604365	5
0	10397	3717.581125411913	6
0	10398	3718.301217269567	5
0	10407	3721.828794502397	6
0	10408	3722.544827692241	5
0	10413	3722.637579320131	4
0	10417	3723.089370155336	5
0	10422	3731.949007679584	6
0	10423	3732.367187645129	5
0	10429	3732.800620156477	4
0	10434	3733.221759992091	3
0	10443	3743.601915880228	2
0	10448	3743.835393093202	1
0	10455	3744.868286267927	2
0	10457	3744.946117659432	3
0	10459	3745.349637124266	4
0	10460	3745.38975531638	3
0	10466	3746.238889981311	4
0	10468	3748.331082978487	3
0	10475	3748.708156631034	2
0	10482	3750.855652732501	3
0	10483	3751.585065027241	2
0	10489	3751.930338096276	3
0	10491	3752.984740295749	4
0	10494	3753.652715205116	5
0	10496	3753.911264001164	6
0	10497	3755.033017828098	5
0	10504	3755.837021707904	4
0	10510	3758.622108203026	5
0	10512	3760.490549717564	4
0	10517	3762.31933359646	3
0	10523	3763.979773869921	2
0	10531	3766.058446346478	3
0	10532	3768.492102657477	2
0	10537	3770.530832481549	1
0	10543	3774.492076209251	2
0	10545	3774.940675195227	3
0	10546	3775.364872364767	2
0	10550	3776.521187038612	3
0	10556	3779.674290127266	4
0	10557	3780.029197760593	3
0	10562	3780.752149048972	2
0	10567	3781.424146595197	1
0	10571	3785.550022140127	2
0	10573	3788.625709552859	3
0	10575	3789.407846444721	4
0	10583	3791.637573152469	5
0	10584	3792.323366576618	4
0	10595	3794.910125226991	5
0	10596	3795.001684740216	4
0	10603	3796.307190137113	5
0	10604	3796.92981012912	4
0	10613	3797.749798248509	5
0	10614	3799.313419150164	4
0	10625	3803.870962523651	5
0	10626	3803.935921180145	4
0	10632	3805.170118654143	5
0	10635	3806.258954363239	6
0	10637	3806.418508983063	7
0	10640	3807.946201194784	6
0	10646	3809.189268710717	5
0	10651	3809.866934364994	4
0	10658	3812.166089150643	3
0	10664	3812.880370070282	2
0	10670	3815.50906285538	1
0	10680	3818.783421998756	0
0	10687	3825.747970342446	1
0	10689	3827.059258724335	2
0	10691	3831.198545133132	3
0	10692	3834.659563015398	2
0	10699	3835.604900847072	3
0	10701	3835.868212896244	4
0	10703	3837.085388709882	5
0	10706	3840.423120203134	4
0	10711	3840.613120055514	3
0	10717	3840.632407712521	4
0	10720	3841.637172108732	3
0	10727	3845.004234076654	2
0	10732	3845.096239922586	1
0	10741	3848.882615819155	2
0	10742	3849.080658252294	1
0	10747	3849.507263759678	0
0	10760	3850.574009204111	1
0	10766	3855.584149682037	0
0	10786	3864.22190128622	1
0	10787	3864.510324986913	0
0	10794	3868.096701689912	1
0	10796	3873.884852835109	2
0	10798	3873.892557958504	3
0	10802	3878.312300158392	4
0	10805	3882.631865051795	3
0	10811	3888.133469936716	2
0	10817	3888.228619023997	3
0	10818	3888.746830540002	2
0	10824	3890.301062062989	1
0	10831	3891.119472503626	2
0	10837	3893.044333538304	1
0	10842	3893.064213496815	0
0	10866	3908.045263928126	1
0	10867	3908.124742306518	0
0	10874	3908.555390869301	1
0	10875	3909.111900244452	0
0	10903	3916.559633271325	1
0	10908	3920.431622662337	2
0	10909	3920.504304452568	1
0	10914	3921.06268468663	0
0	10935	3926.275132653888	1
0	10938	3929.868975419268	0
0	10958	3938.012087954929	1
0	10963	3940.442717815183	0
0	10969	3940.90055198302	1
0	10971	3943.225345322591	0
0	11001	3948.849496360065	1
0	11006	3952.337027611917	2
0	11007	3954.211127096852	1
0	11012	3955.460948595315	0
0	11030	3958.314994948274	1
0	11034	3959.134007721009	0
0	11049	3965.736641462709	1
0	11052	3966.200673306063	0
0	11058	3967.370256214129	1
0	11060	3968.183863246035	0
0	11072	3971.893407030236	1
0	11074	3972.046560449516	2
0	11077	3972.314051500673	1
0	11084	3973.222447254587	2
0	11087	3974.673452547404	1
0	11093	3975.857139036069	2
0	11095	3977.096409633527	1
0	11101	3977.96297696587	0
0	11113	3983.834594758371	1
0	11114	3984.808910877521	0
0	11129	3986.39960316134	1
0	11131	3986.510924245095	2
0	11133	3986.952132052217	3
0	11137	3989.480872818508	4
0	11138	3989.659133864737	3
0	11143	3990.984727502157	2
0	11149	3991.647568243351	3
0	11152	3995.115753772159	2
0	11157	3995.360126130071	1
0	11163	3995.925892620716	2
0	11164	3996.442330489758	1
0	11171	4000.844998271482	0
0	11183	4002.50777465607	1
0	11185	4003.714050292094	0
0	11192	4005.611111461904	1
0	11194	4006.751750316795	2
0	11195	4007.679121178366	1
0	11200	4008.53473536098	0
0	11210	4011.519694307342	1
0	11211	4012.069789867138	0
0	11220	4013.019975741892	1
0	11221	4014.84224176467	0
0	11232	4017.64927891116	1
0	11237	4019.668044510202	2
0	11238	4024.523451152493	1
0	11244	4024.642932521695	0
0	11258	4029.649847275401	1
0	11259	4033.858109732087	0
0	11269	4036.353810120167	1
0	11273	4039.994401926725	2
0	11274	4041.334932854075	1
0	11279	4042.064828692995	0
0	11285	4042.42185396863	1
0	11287	4042.827112614725	2
0	11288	4043.621292037905	1
0	11296	4046.336388300613	0
0	11302	4047.683215880687	1
0	11305	4049.154463828189	0
0	11332	4056.859129400813	1
0	11333	4057.542148872915	0
0	11358	4064.728663736818	1
0	11362	4065.013607027101	2
0	11363	4066.330141978592	1
0	11370	4066.428652931508	0
0	11389	4068.993732566721	1
0	11393	4071.512891831392	2
0	11394	4075.389683522714	1
0	11400	4075.452717330904	2
0	11401	4075.748750847735	1
0	11406	4075.91077602412	0
0	11420	4083.051718347023	1
0	11421	4084.018300225361	0
0	11428	4084.150694939692	1
0	11429	4085.282791545117	0
0	11443	4088.101246892243	1
0	11444	4088.150424864584	0
0	11454	4093.401823154156	1
0	11458	4093.671874721657	2
0	11462	4098.027193211147	3
0	11463	4099.736373773289	2
0	11471	4102.630351051246	3
0	11473	4104.939642655762	4
0	11474	4105.143844291062	3
0	11480	4106.22075888824	2
0	11485	4106.423366057102	1
0	11490	4106.44828901854	0
0	11503	4111.52731784664	1
0	11507	4112.861793019902	0
0	11531	4119.491494868008	1
0	11536	4122.532335854388	2
0	11541	4123.837742205482	3
0	11542	4125.298553404819	2
0	11547	4126.773294618581	1
0	11554	4128.187807946459	2
0	11555	4130.168209208847	1
0	11560	4132.449917914056	0
0	11564	4132.567665338668	1
0	11566	4134.220941206909	2
0	11570	4135.500115414683	1
0	11577	4136.925145987635	0
0	11607	4152.731735003941	1
0	11609	4153.587610711101	0
0	11629	4161.196917233631	1
0	11630	4162.500575655427	0
0	11640	4163.309100110436	1
0	11642	4164.84112623217	2
0	11645	4167.05862873715	1
0	11651	4167.626155272792	0
0	11658	4169.336404365875	1
0	11659	4169.976548247939	0
0	11677	4176.377831990523	1
0	11684	4179.820677677991	0
0	11710	4189.312687143326	1
0	11712	4192.303974870316	2
0	11718	4195.16230672962	3
0	11723	4200.970042635373	2
0	11731	4201.57031569213	1
0	11738	4205.72356742727	2
0	11741	4208.004533200826	1
0	11746	4208.691018388386	0
0	11755	4210.759690224384	1
0	11758	4212.005049939222	0
0	11769	4215.432394198124	1
0	11773	4215.668755507358	2
0	11777	4219.554199133998	3
0	11779	4223.412198327636	4
0	11781	4223.960665870635	5
0	11783	4225.652002737935	6
0	11784	4225.888455918659	5
0	11789	4225.992175875299	4
0	11795	4226.294756476286	5
0	11796	4228.381597910297	4
0	11802	4228.717692895005	5
0	11805	4229.06880507862	4
0	11814	4237.454784768106	3
0	11820	4238.143565852462	4
0	11822	4238.623166745271	5
0	11823	4238.93430354431	4
0	11829	4239.224356735232	5
0	11832	4240.821905830126	4
0	11840	4245.455252884203	3
0	11845	4246.027046322199	2
0	11852	4249.87535862597	1
0	11859	4250.918002705922	0
0	11868	4254.119318581202	1
0	11870	4254.644805412796	2
0	11876	4259.247250623807	1
0	11882	4260.202934958163	0
0	11890	4260.674963750431	1
0	11894	4263.494432620809	2
0	11895	4264.741971505041	1
0	11904	4266.618274443336	0
0	11910	4266.748323360218	1
0	11912	4269.222043010978	2
0	11913	4269.890455280115	1
0	11920	4270.529533439026	0
0	11933	4271.885938051283	1
0	11934	4272.316922424544	0
0	11941	4276.293981378446	1
0	11942	4277.000456260557	0
0	11956	4284.541074002738	1
0	11958	4286.743604481028	0
0	11974	4290.614987111577	1
0	11982	4293.332230176247	2
0	11985	4295.112127182754	1
0	11991	4297.73660898677	0
0	11998	4299.311016475065	1
0	11999	4299.944196213132	0
0	12006	4301.098253281888	1
0	12008	4302.457578866558	2
0	12009	4302.760429960615	1
0	12015	4305.956766532885	0
0	12035	4309.727295119458	1
0	12036	4310.813763712221	0
0	12046	4310.997290092268	1
0	12050	4312.864149105131	0
0	12061	4315.696843300288	1
0	12068	4321.154110116796	0
0	12074	4321.633570446192	1
0	12076	4323.415826102463	2
0	12077	4323.901660417074	1
0	12082	4324.415579710113	0
0	12086	4325.221007200596	1
0	12091	4328.057134900972	2
0	12099	4332.114400289003	1
0	12105	4335.177824538701	0
0	12111	4335.284835344305	1
0	12112	4336.549699808691	0
0	12139	4347.772587629705	1
0	12141	4348.690071237758	2
0	12142	4351.074794123628	1
0	12147	4351.635535048239	0
0	12167	4355.870945834722	1
0	12169	4355.913919819787	2
0	12174	4357.21552232404	3
0	12176	4357.305780657619	4
0	12177	4358.397842969849	3
0	12183	4358.510313063446	4
0	12185	4358.784004825698	3
0	12191	4359.798986064226	4
0	12192	4361.429676553173	3
0	12196	4361.657659124152	4
0	12201	4363.973229300467	3
0	12205	4364.522213126608	4
0	12207	4365.660121070553	5
0	12209	4366.223227131241	6
0	12213	4366.908815066998	7
0	12214	4367.862913249739	6
0	12219	4368.352163250737	5
0	12227	4370.538365684092	4
0	12239	4372.428278502051	5
0	12240	4375.718573450356	4
0	12245	4375.757696886815	3
0	12250	4377.377500121584	2
0	12260	4380.818803173222	3
0	12261	4380.838976194084	2
0	12266	4381.028276288313	1
0	12273	4381.750792182583	2
0	12280	4384.139420027965	3
0	12283	4386.862453555733	2
0	12293	4388.601703073766	3
0	12294	4389.136624786891	2
0	12300	4389.168612589388	3
0	12303	4391.567543593729	2
0	12310	4395.925707737789	1
0	12315	4396.442732555557	0
0	12319	4397.157719711313	1
0	12322	4397.241908526066	0
0	12326	4397.881874442155	1
0	12334	4405.024952465438	2
0	12335	4408.892846571394	1
0	12342	4409.560663302374	2
0	12345	4412.398459308209	1
0	12352	4414.073929247759	2
0	12354	4414.530050339873	3
0	12355	4417.001097581641	2
0	12361	4417.477956299751	3
0	12363	4420.825014212696	2
0	12371	4425.538497810111	1
0	12376	4425.811662186602	0
0	12394	4427.887266240052	1
0	12395	4428.018123900193	0
0	12407	4432.089684076378	1
0	12409	4432.249130096537	0
0	12439	4442.793521509803	1
0	12441	4447.200181161972	0
0	12452	4449.805946497617	1
0	12453	4450.171857857821	0
0	12469	4454.20394681981	1
0	12471	4454.337035867487	2
0	12472	4455.514946422165	1
0	12479	4455.948992860286	0
0	12485	4456.818552945561	1
0	12486	4456.841244983892	0
0	12490	4458.139994369838	1
0	12494	4459.082704860789	2
0	12496	4459.139110202944	3
0	12499	4461.089888748789	2
0	12505	4462.221347888944	3
0	12509	4463.243849027975	4
0	12510	4463.800432686841	3
0	12514	4463.922044146253	4
0	12519	4466.180368768852	3
0	12523	4467.205267496601	4
0	12525	4469.531001361471	5
0	12531	4477.388851556927	4
0	12536	4478.099660940602	3
0	12542	4479.021465105652	2
0	12549	4479.715029174219	3
0	12551	4479.840987349195	4
0	12552	4484.04315598421	3
0	12559	4485.49986318152	2
0	12565	4487.409098721797	1
0	12571	4487.776338284873	2
0	12572	4488.496650714791	1
0	12578	4489.064876410468	0
0	12602	4497.908372378124	1
0	12605	4499.130214259606	2
0	12609	4503.290566164199	3
0	12612	4505.145362992198	2
0	12617	4505.624730017076	1
0	12624	4507.169729142682	0
0	12630	4508.488292919826	1
0	12631	4509.201125751976	0
0	12643	4510.795553316039	1
0	12647	4512.515490554694	0
0	12653	4513.730300555437	1
0	12655	4516.842720003361	0
0	12668	4520.532525121589	1
0	12669	4520.544936445302	0
0	12678	4522.33179921767	1
0	12682	4523.996566627725	0
0	12694	4525.143467775445	1
0	12696	4528.368794336369	0
0	12703	4532.379814838874	1
0	12706	4535.257389556671	0
0	12714	4537.529064852983	1
0	12716	4538.272053565978	2
0	12718	4538.313354755972	3
0	12720	4539.933624119021	2
0	12726	4540.228905829276	3
0	12728	4543.357835509513	2
0	12733	4546.205782685717	1
0	12741	4547.796307185566	0
0	12755	4551.83042444098	1
0	12761	4555.329664071176	2
0	12762	4556.068792384654	1
0	12769	4558.109161883759	2
0	12770	4559.609696934279	1
0	12779	4564.434995683281	0
0	12809	4573.699582872911	1
0	12811	4574.201009833564	2
0	12819	4580.995644699368	3
0	12822	4583.889834553313	2
0	12830	4584.91397971124	3
0	12832	4586.533169753127	2
0	12837	4588.078096313027	1
0	12844	4591.776989662807	2
0	12846	4592.726090632071	1
0	12851	4594.069910576597	0
0	12860	4596.101480719298	1
0	12864	4597.071116367684	2
0	12867	4598.267389016383	1
0	12873	4598.578466636463	2
0	12879	4599.563808284308	1
0	12885	4600.97682977713	0
0	12905	4603.820735944989	1
0	12906	4604.828557726519	0
0	12918	4607.817912516387	1
0	12920	4607.877311622771	2
0	12922	4609.20472277552	3
0	12924	4609.352137867374	4
0	12926	4610.370793557102	5
0	12927	4610.945643586255	4
0	12932	4611.084524595001	3
0	12938	4611.240997097448	4
0	12945	4615.221468380918	3
0	12950	4616.204995920109	2
0	12959	4620.834726390197	1
0	12964	4620.994962435795	0
0	12988	4624.730136041607	1
0	12990	4627.442594272643	2
0	12993	4629.720748747728	1
0	12998	4630.184248159764	0
0	13009	4632.520209806701	1
0	13011	4632.786424153212	2
0	13015	4633.540020655195	3
0	13021	4636.280522773403	2
0	13026	4636.463510912549	1
0	13031	4638.156914993057	0
0	13037	4640.02138469125	1
0	13038	4640.667143999924	0
0	13042	4640.97649926202	1
0	13046	4642.845967579927	0
0	13073	4655.12576425169	1
0	13074	4655.290145450102	0
0	13095	4663.24799506191	1
0	13096	4663.633429672404	0
0	13107	4665.147618184308	1
0	13109	4665.245682288005	2
0	13112	4666.07868134845	1
0	13119	4666.624432681485	2
0	13120	4666.633599408492	1
0	13129	4670.029173437645	0
0	13136	4670.488925354628	1
0	13137	4671.871664497937	0
0	13146	4675.422093609784	1
0	13148	4679.865411929823	2
0	13152	4684.730947052065	3
0	13154	4685.991500172612	4
0	13156	4686.169462966472	5
0	13160	4687.980991437065	6
0	13161	4688.42789658421	5
0	13167	4688.490102054231	6
0	13170	4690.805151605958	5
0	13179	4692.777868028169	6
0	13181	4696.996423475076	5
0	13187	4699.208865754118	4
0	13193	4702.161328154668	3
0	13198	4702.304992659452	2
0	13204	4703.554327975205	3
0	13207	4704.302270985391	2
0	13212	4705.233606404639	1
0	13216	4706.381290281199	2
0	13218	4708.67745048936	3
0	13220	4709.749047092837	4
0	13222	4711.119731949285	5
0	13228	4713.445949198381	4
0	13235	4715.06868718963	3
0	13240	4716.081805700138	2
0	13250	4719.943540251428	3
0	13255	4721.308448979514	2
0	13261	4721.456191459312	1
0	13266	4721.932189134597	0
0	13283	4724.676746090432	1
0	13285	4725.981270047479	2
0	13288	4731.135768447141	1
0	13293	4731.534149237853	0
0	13304	4731.738232603374	1
0	13307	4735.939994300546	0
0	13331	4747.620233779405	1
0	13333	4748.977389156919	2
0	13334	4749.707791809157	1
0	13339	4751.052093491099	0
0	13346	4752.91824445318	1
0	13348	4753.625172547049	2
0	13349	4755.74272568147	1
0	13358	4759.849214847741	2
0	13360	4762.360770643838	3
0	13364	4765.993743895317	2
0	13370	4767.175250714907	1
0	13377	4767.527801747004	0
0	13383	4771.624824500679	1
0	13388	4777.244541530012	0
0	13413	4789.615766570376	1
0	13415	4789.864322095002	2
0	13421	4792.661644023729	3
0	13423	4794.259910708099	4
0	13425	4794.608872511445	5
0	13426	4795.707253079999	4
0	13436	4798.562448794584	5
0	13438	4800.032831368435	6
0	13441	4802.68190501755	5
0	13447	4805.422199878975	4
0	13452	4806.845275292728	3
0	13457	4807.085367815537	2
0	13465	4812.954460289949	3
0	13466	4813.503925184999	2
0	13471	4813.785663676085	1
0	13477	4814.979976750543	0
0	13491	4816.027000928549	1
0	13492	4816.352136373503	0
0	13502	4818.751184955725	1
0	13505	4821.237595899769	2
0	13506	4821.499738896942	1
0	13510	4822.63613414577	2
0	13516	4824.103505903668	3
0	13517	4824.262584269806	2
0	13522	4827.412498816046	1
0	13531	4831.95397342224	0
0	13578	4850.461330562797	1
0	13579	4850.771110443701	0
0	13600	4855.932762152261	1
0	13604	4859.345764176043	0
0	13621	4864.330910228854	1
0	13622	4864.747889632086	0
0	13628	4864.838983915397	1
0	13630	4866.362347680969	0
0	13637	4866.772037947229	1
0	13639	4867.111240879412	2
0	13640	4867.237139726558	1
0	13646	4869.200342356643	0
0	13654	4872.378926931638	1
0	13655	4874.807814666823	0
0	13659	4874.98139624599	1
0	13664	4875.419278401771	2
0	13666	4875.561134569643	3
0	13668	4875.775582245996	4
0	13670	4876.628142461336	5
0	13672	4877.86346961989	6
0	13675	4878.618079845313	5
0	13682	4881.133342603561	6
0	13687	4885.86613162118	5
0	13693	4886.442830138152	4
0	13700	4887.256703366017	5
0	13701	4887.879319222393	4
0	13706	4888.9906896561	3
0	13713	4890.020701365054	2
0	13721	4892.694123935535	3
0	13722	4892.992534590685	2
0	13727	4896.310390233084	1
0	13736	4898.187077921648	0
0	13748	4900.330360128253	1
0	13749	4900.942824663271	0
0	13771	4903.352752312923	1
0	13772	4904.579344032078	0
0	13788	4907.706566231713	1
0	13790	4909.77418107048	2
0	13791	4912.901810541402	1
0	13798	4916.629217280217	0
0	13804	4917.666705361446	1
0	13806	4918.193762108195	2
0	13809	4919.581742309485	1
0	13819	4921.194863308758	2
0	13821	4921.335435093858	3
0	13824	4924.795616477362	2
0	13829	4925.40694161837	1
0	13836	4925.79272574306	0
0	13840	4929.555153165976	1
0	13845	4932.758228498601	0
0	13856	4933.370897286283	1
0	13857	4935.610769158861	0
0	13865	4936.581537175901	1
0	13868	4939.878489903946	0
0	13874	4946.182250607829	1
0	13876	4950.317806898784	0
0	13891	4959.738651088852	1
0	13892	4960.074665884903	0
0	13904	4962.764241852325	1
0	13905	4963.222847929415	0
0	13916	4965.694701738543	1
0	13922	4969.294582374534	0
0	13943	4980.85255713372	1
0	13945	4980.877857031969	2
0	13947	4983.685378138785	3
0	13949	4984.945923243988	4
0	13950	4985.575929779323	3
0	13956	4988.596131596429	4
0	13958	4988.912241562519	5
0	13959	4989.006763125271	4
0	13966	4989.269969442588	3
0	13971	4991.334008549946	2
0	13983	5000.053518655163	3
0	13984	5000.115377797614	2
0	13992	5004.690602439676	1
0	13998	5005.789175339364	2
0	14000	5007.021616001165	3
0	14006	5011.438899040745	2
0	14016	5013.607765585063	1
0	14022	5014.285282444052	0
0	14037	5017.105875723384	1
0	14039	5017.17961964169	2
0	14041	5018.057068659509	3
0	14045	5018.927301290816	4
0	14046	5019.53178152611	3
0	14051	5019.706126836876	2
0	14058	5022.10745294024	1
0	14067	5022.60023498606	0
0	14073	5022.68068640145	1
0	14076	5024.652903071416	0
0	14092	5028.977602289153	1
0	14098	5029.9794740213	0
0	14104	5030.226459384788	1
0	14107	5032.866869578676	2
0	14108	5033.193569917255	1
0	14114	5038.0503803125	0
0	14128	5039.93252574997	1
0	14129	5040.776652103482	0
0	14138	5042.500589553659	1
0	14139	5044.704680239283	0
0	14154	5048.63785520994	1
0	14155	5048.660504157028	0
0	14161	5049.023875625668	1
0	14163	5049.431100503479	0
0	14173	5051.017094225378	1
0	14174	5051.448396077099	0
0	14186	5055.507842472891	1
0	14187	5057.66644056619	0
0	14193	5058.669485199373	1
0	14194	5058.700776519995	0
0	14200	5058.972061321497	1
0	14201	5059.825445071955	0
0	14210	5064.350566309149	1
0	14212	5064.395564713135	2
0	14214	5065.556479452686	1
0	14222	5066.666320393895	0
0	14244	5074.475385635627	1
0	14246	5074.531465760286	2
0	14247	5077.723427951216	1
0	14256	5079.148953848523	2
0	14257	5079.941891381276	1
0	14267	5081.56238557709	2
0	14268	5082.092201429279	1
0	14277	5085.233427440902	0
0	14281	5085.36705509034	1
0	14283	5085.689301208813	2
0	14286	5087.499864030843	1
0	14291	5089.278497093586	0
0	14295	5089.762814566286	1
0	14303	5102.230468261896	0
0	14318	5105.198363022814	1
0	14319	5106.049476915574	0
0	14323	5106.305005367892	1
0	14326	5106.86311356027	0
0	14332	5108.874636900089	1
0	14339	5112.917298318571	0
0	14353	5113.955035792294	1
0	14355	5114.04712700166	2
0	14361	5115.728919737164	1
0	14368	5117.050587130877	2
0	14369	5117.181249961906	1
0	14374	5117.415649519995	0
0	14394	5120.91037211194	1
0	14399	5123.421196668701	2
0	14400	5123.789537340273	1
0	14405	5123.854473739403	0
0	14428	5131.57964037149	1
0	14429	5132.53798803551	0
0	14436	5133.032638017816	1
0	14438	5135.478080750622	2
0	14444	5140.345083745127	3
0	14445	5140.701987314357	2
0	14451	5141.043695598528	1
0	14456	5141.403648466867	0
0	14464	5146.172744760133	1
0	14465	5148.742810849226	0
0	14472	5150.223824087967	1
0	14474	5155.771784416687	2
0	14476	5159.795602509333	3
0	14477	5161.839817617505	2
0	14484	5163.215115389885	1
0	14489	5163.581783316813	0
0	14505	5165.476013897504	1
0	14507	5166.844834819419	2
0	14510	5168.509613561317	1
0	14516	5174.815557940948	2
0	14518	5174.851727650587	3
0	14522	5176.655742329764	4
0	14526	5181.541171025903	5
0	14528	5182.404380383499	6
0	14529	5182.723901854797	5
0	14538	5184.405087636282	4
0	14544	5187.690983510274	3
0	14550	5189.90753724523	4
0	14553	5192.145354930517	5
0	14556	5192.547202283208	4
0	14561	5193.389249475764	3
0	14569	5196.717028458269	4
0	14573	5199.581787816669	5
0	14574	5201.059809216212	4
0	14579	5201.100506838219	3
0	14586	5203.912546322927	2
0	14591	5204.431961945576	1
0	14597	5204.773975537048	2
0	14599	5204.859177091266	3
0	14600	5206.951348346205	2
0	14604	5210.273942490194	3
0	14606	5211.999003628751	4
0	14611	5215.879476324046	3
0	14620	5217.633237653162	4
0	14625	5220.168750048736	3
0	14635	5222.066679575744	2
0	14641	5223.062533460364	1
0	14647	5225.303100059947	0
0	14660	5227.923710827473	1
0	14661	5228.952465053472	0
0	14688	5237.922011521426	1
0	14691	5239.641733987742	0
0	14707	5248.195976128688	1
0	14709	5248.350762080005	2
0	14711	5248.54584212212	3
0	14714	5250.238454322828	2
0	14719	5250.379708177081	1
0	14726	5252.645331368891	0
0	14732	5254.992739526308	1
0	14735	5256.057093249408	0
0	14739	5256.206274031756	1
0	14742	5257.685537498123	0
0	14771	5267.886534856777	1
0	14772	5267.992627640199	0
0	14778	5268.024610989535	1
0	14779	5269.204868338322	0
0	14803	5274.641830659641	1
0	14805	5277.083775623086	2
0	14806	5277.174856389159	1
0	14812	5280.232973875935	0
0	14821	5285.815448217464	1
0	14826	5286.196366078081	0
0	14832	5286.242984749259	1
0	14835	5289.841458872486	2
0	14837	5290.072164371416	3
0	14840	5292.242574353841	4
0	14842	5294.77131478716	5
0	14845	5297.630633974132	4
0	14851	5299.986119108519	3
0	14857	5300.335859588308	2
0	14864	5301.72980160801	1
0	14869	5302.734256848158	0
0	14884	5306.562693347619	1
0	14886	5309.066267519257	0
0	14893	5309.209422479492	1
0	14894	5309.468213236134	0
0	14900	5309.652264578602	1
0	14902	5310.122816656543	2
0	14903	5310.371725916593	1
0	14908	5310.410924410873	0
0	14917	5313.758784336817	1
0	14920	5318.219134261884	0
0	14927	5319.079126099839	1
0	14929	5320.109988129268	2
0	14930	5321.081682249771	1
0	14938	5324.058443303395	0
0	14952	5327.222244676994	1
0	14954	5329.125922943446	2
0	14958	5330.786896658292	3
0	14962	5331.276740604327	4
0	14963	5331.805330497788	3
0	14969	5333.499273952969	4
0	14971	5333.559244493061	5
0	14976	5335.500456373109	6
0	14978	5336.777048170035	7
0	14979	5341.638374549423	6
0	14986	5343.431116074683	7
0	14989	5344.807368402553	6
0	14997	5346.086473486956	7
0	15001	5351.028612258689	6
0	15007	5351.864174830761	7
0	15008	5354.452983140649	6
0	15013	5354.643987329384	5
0	15022	5359.698924628929	4
0	15027	5360.844021433098	3
0	15032	5361.370567045354	2
0	15036	5362.297048520613	3
0	15038	5363.870541860719	4
0	15043	5365.664265565334	3
0	15048	5366.748005242922	2
0	15053	5368.368313622136	1
0	15059	5369.620746204748	0
0	15066	5373.860904933488	1
0	15068	5375.717522477192	0
0	15104	5385.791112551422	1
0	15105	5387.381452301384	0
0	15127	5403.490379872733	1
0	15130	5404.116727189624	0
0	15137	5408.221406300113	1
0	15138	5409.89812779009	0
0	15144	5411.338342178609	1
0	15146	5413.138269996912	0
0	15154	5414.925102292108	1
0	15155	5416.689157569097	0
0	15162	5419.608166434216	1
0	15163	5422.297997897238	0
0	15169	5422.58746257256	1
0	15170	5423.155246213087	0
0	15195	5426.535600688828	1
0	15197	5427.317877156625	2
0	15202	5428.692985441895	3
0	15203	5428.703296798682	2
0	15209	5428.92095784616	3
0	15213	5431.656526411722	2
0	15220	5437.547642178546	3
0	15221	5438.096495644923	2
0	15228	5441.770048213896	3
0	15229	5442.372815146092	2
0	15235	5447.26594929361	1
0	15240	5447.520019317944	0
0	15258	5449.999904721012	1
0	15259	5450.060732711705	0
0	15283	5456.043663538122	1
0	15284	5462.088116900027	0
0	15297	5465.121572063084	1
0	15299	5465.446431867772	2
0	15306	5466.869196562863	3
0	15309	5468.574483628277	4
0	15310	5470.412698728329	3
0	15317	5471.425020933686	2
0	15322	5471.917240366434	1
0	15330	5474.881281873673	2
0	15333	5476.69832268919	1
0	15339	5477.4826491473	0
0	15354	5478.16558785657	1
0	15358	5483.303116278897	0
0	15364	5483.426231994773	1
0	15366	5485.028656146183	0
0	15374	5485.956418159314	1
0	15375	5487.093300596561	0
0	15382	5490.318498347349	1
0	15385	5493.391847272891	0
0	15415	5501.160976445673	1
0	15419	5504.022973015554	0
0	15437	5505.43698170993	1
0	15438	5508.670015987162	0
0	15453	5513.844338395633	1
0	15455	5514.337463450624	2
0	15456	5514.472235978889	1
0	15462	5514.74856034364	0
0	15469	5516.460650124551	1
0	15473	5516.625786538065	0
0	15482	5516.94299302484	1
0	15486	5520.395811469872	0
0	15499	5525.328864952982	1
0	15500	5529.528160287453	0
0	15523	5534.712201261757	1
0	15524	5536.303646701162	0
0	15537	5537.011925322512	1
0	15538	5537.353067851383	0
0	15551	5538.801094509682	1
0	15552	5539.784711913545	0
0	15560	5540.201537224806	1
0	15563	5540.505629357904	0
0	15583	5545.919082408691	1
0	15584	5545.951928462924	0
0	15593	5546.99892592073	1
0	15596	5549.529609041883	0
0	15602	5549.949248453108	1
0	15603	5550.79642328806	0
0	15609	5550.824869976399	1
0	15610	5552.228053668103	0
0	15617	5553.721012509953	1
0	15619	5553.849286711923	2
0	15621	5559.198738473575	1
0	15627	5559.214069523761	2
0	15631	5560.207579523232	3
0	15632	5561.607229428994	2
0	15638	5561.713251165956	3
0	15640	5561.91481189089	2
0	15649	5564.539199668605	3
0	15651	5565.235846233093	4
0	15652	5565.411680011264	3
0	15658	5565.472214577975	4
0	15662	5566.681301529794	5
0	15664	5571.604820861146	6
0	15666	5572.199127354667	7
0	15669	5575.18769459257	6
0	15675	5578.925652120757	5
0	15680	5578.960252519207	4
0	15685	5579.235437637011	3
0	15693	5581.541992718336	4
0	15695	5583.117949034965	5
0	15696	5583.363274869422	4
0	15701	5586.131951590442	3
0	15707	5588.26586075871	4
0	15712	5593.890264637146	3
0	15718	5595.047367631735	4
0	15723	5596.687752532823	3
0	15727	5597.896402776104	4
0	15732	5598.679027914539	5
0	15736	5599.235551195297	4
0	15743	5599.471532936422	3
0	15748	5600.259148238675	2
0	15755	5603.044412569928	1
0	15762	5607.465238326446	0
0	15784	5614.260755020435	1
0	15785	5614.483168940594	0
0	15802	5622.989599938054	1
0	15805	5625.660382883096	0
0	15818	5630.045516218153	1
0	15819	5631.046920560109	0
0	15829	5633.503414712905	1
0	15834	5637.128531494613	0
0	15840	5637.663507364475	1
0	15842	5638.35362888706	2
0	15843	5639.084326058496	1
0	15849	5639.310811485843	2
0	15855	5644.352824515017	1
0	15861	5644.431734504697	2
0	15867	5646.457541058467	3
0	15871	5649.349769044585	4
0	15872	5649.800961219897	3
0	15879	5650.501545946091	4
0	15881	5650.939621495187	5
0	15883	5654.545886304282	6
0	15884	5655.48539803692	5
0	15891	5659.125717853295	6
0	15892	5660.571883464376	5
0	15898	5663.548284135341	4
0	15904	5663.985772952049	5
0	15907	5665.765777159472	6
0	15908	5665.95737633121	5
0	15917	5668.480045982895	6
0	15922	5681.698800723285	5
0	15927	5683.130890517584	4
0	15932	5683.575928334536	3
0	15936	5684.946890237471	4
0	15939	5688.643637573688	3
0	15945	5689.851969822391	2
0	15950	5691.061843279692	1
0	15956	5692.988983907278	0
[...]
5	72165	25544.735823872325	9565.9981695092
5	72191	25549.202002976063	9562.8565064208
5	72200	25551.174868328051	9562.8698337498
5	72218	25556.194513927503	9564.9548669055
5	72271	25571.886251339399	9565.647834858
5	72295	25578.156877057297	9566.9382405135
5	72302	25580.006877970387	9553.8478917077
5	72317	25583.096906430778	9539.3082214813
5	72355	25599.212082299513	9544.0969922424
5	72360	25602.479875838993	9524.8591302953
5	72365	25603.320010720667	9508.3114375638
5	72374	25610.460407544497	9504.2340812878
5	72389	25619.409258841339	9496.0692689311
5	72415	25628.917350957544	9504.3906889168
5	72429	25634.25880662654	9503.5533461257
5	72434	25634.833710084997	9493.8459565446
5	72439	25641.20542116796	9495.5375007121
5	72446	25642.505957057648	9475.8853867288
5	72532	25670.038488943847	9501.9326540623
5	72537	25670.35772602527	9502.072335269
5	72547	25672.311142681736	9491.7974805453
5	72676	25721.234585996715	9538.8614305487
5	72701	25733.387595542595	9548.1633766286
5	72718	25738.385920556259	9551.7712621611
5	72757	25750.868199087389	9563.0195848303
5	72781	25756.912646414806	9566.0444162825
5	72792	25765.417131053159	9569.7551680519
5	72875	25800.925572859241	9600.3856464716
5	72880	25800.97751065346	9599.8459946712
5	72890	25804.158840303654	9599.60033285
5	72905	25811.000435504928	9602.8670409259
5	72940	25816.257831908199	9607.4095898302
5	73079	25881.364437894757	9669.2445734535
5	73084	25881.451285108183	9666.3277667624
5	73091	25883.135614674446	9657.4620763502
5	73130	25897.442304803247	9663.4790885279
5	73180	25916.276247090517	9680.5469036806
5	73191	25918.685643200416	9674.3009031139
5	73226	25932.72713021878	9682.5809110893
5	73231	25933.079194371733	9661.9972688055
5	73249	25939.521664165378	9668.4152667688
5	73269	25949.89639662399	9667.1247156537
5	73287	25951.798385278661	9667.8449824773
5	73292	25951.894818412112	9650.6043956762
5	73301	25960.11551205427	9654.5130429965
5	73317	25962.463506840782	9655.5179881328
5	73322	25963.154695364361	9648.9728358664
5	73336	25974.694956883219	9651.9844538435
5	73734	26110.440091374787	9785.83744663
5	73739	26110.551384764616	9771.2271528001
5	73747	26114.079162729524	9764.5686269068
5	73771	26120.184857109444	9763.0533956176
5	73872	26151.450471061402	9794.1924763092
5	73914	26167.436707365068	9804.995731109
5	73921	26168.665886889301	9803.1490263318
5	73926	26170.765289206283	9804.9977674132
5	73943	26178.16824291844	9797.6673619625
5	73983	26186.036032662703	9801.4355739834
5	74053	26205.366186234619	9817.0520515252
5	74063	26206.011545823907	9808.0099699926
5	74068	26209.336412388607	9802.8858358934
5	74075	26211.14083555115	9794.4991002641
5	74083	26212.298744327108	9789.1218377027
5	74091	26215.288195644284	9780.4712930969
5	74111	26218.602629612146	9782.1293035371
5	74127	26226.482569089478	9789.6178543304
5	74132	26226.810214716314	9780.2518704645
5	74141	26228.053093943833	9774.0134153203
5	74174	26239.156031447764	9778.5778588655
5	74255	26265.325245697955	9803.8370905554
5	74264	26268.213653787373	9806.0457171156
5	74282	26273.693442744159	9777.2390966026
5	74293	26275.844526505336	9776.8346950014
5	74318	26283.460288726577	9784.1493478546
5	74327	26285.480830245864	9786.1286403025
5	74338	26288.326958384111	9786.839141145
5	74345	26290.903345424409	9789.4014791801
5	74350	26294.354363315477	9786.3226859144
5	74355	26295.59850569221	9783.2503233538
5	74360	26296.151909654766	9783.4812220313
5	74371	26303.312803447352	9783.0701804962
5	74384	26308.250900957654	9782.9250201073
5	74391	26310.786403972487	9782.6499992699
5	74398	26312.385667332449	9782.1509332392
5	74419	26322.485919522638	9780.5042264263
5	74483	26342.030122023543	9797.8738335223
5	74501	26348.206488563955	9793.8020117792
5	74512	26350.656510513791	9784.9516340569
5	74543	26360.601862062462	9788.463935299
5	74555	26367.472722651254	9791.1042391474
5	74601	26378.97698120975	9801.0070093401
5	74610	26382.98230910839	9803.2800944098
5	74620	26386.193280116995	9803.4225560329
5	74630	26389.90260908981	9797.4183338502
5	74665	26401.754006553665	9806.0994254376
5	74670	26402.886509812796	9802.791393918
5	74675	26403.289637204384	9787.9866169015
5	74682	26407.389050333861	9785.648854468
5	74693	26414.924187681066	9789.8949096734
5	74705	26416.841070491267	9788.0881234136
5	74710	26417.043919139048	9785.9636195663
5	74715	26419.086728311637	9786.8094701666
5	74731	26428.507452134649	9784.1195839015
5	74780	26444.169543747517	9796.5009091896
5	74785	26444.92547786639	9792.0888693357
5	74792	26446.189633446487	9787.0246955275
5	74803	26449.026614952091	9778.6038152936
5	74808	26450.069265174264	9778.2655949561
5	74815	26452.510973872556	9775.6121127704
5	74824	26455.322609177701	9765.7067244339
5	74833	26458.480057868213	9764.436303906
5	74869	26467.008998394805	9756.5086751139
5	74874	26471.772199882138	9739.0395721172
5	74889	26486.766556865066	9752.5922902339
5	74943	26495.504495916832	9749.9680284241
5	74954	26499.15914426284	9752.2982108763
5	75007	26510.662609783508	9752.8011885093
5	75060	26528.954326055992	9768.6003885973
5	75074	26532.215272273459	9770.6240362048
5	75081	26532.872792209653	9767.9132326559
5	75098	26536.700007060456	9758.0638856164
5	75331	26623.104878476899	9844.1346505125
5	75377	26633.226291198833	9843.6093696753
5	75387	26634.517769422333	9839.7983031968
5	75397	26636.844500835249	9837.956712604
5	75402	26638.826204983144	9831.4086387129
5	75414	26642.136867122818	9831.5016374318
5	75425	26647.812250968642	9835.9865334673
5	75430	26648.517741475539	9816.2572901546
5	75435	26649.7726369654	9814.7069695144
5	75446	26658.171980864975	9791.5030106403
5	75490	26673.98064042856	9806.9243781742
5	75501	26681.614640021745	9813.3520136638
5	75512	26681.849677852425	9803.155128809
5	75517	26684.545809655797	9800.9476132452
5	75522	26688.478255735143	9794.5820835505
5	75533	26697.811764392818	9798.4857213328
5	75556	26706.678576834981	9802.2707276129
5	75600	26717.675957702094	9806.9544872482
5	75605	26720.81504228335	9804.3382767539
5	75612	26727.091074074315	9808.3061347653
5	75770	26791.079275919198	9865.2506511052
5	75776	26792.698399379213	9861.7345397477
5	75781	26792.825168771706	9857.4097108443
5	75788	26799.274145523818	9863.6985010158
5	75801	26808.188802563352	9871.2649194077
5	75835	26818.37529168162	9876.820046116
5	75845	26824.766820241205	9882.8718632558
5	75855	26829.770197607806	9879.0069209061
5	75866	26836.568141478093	9878.6544709221
5	75877	26837.40817462339	9874.3570670309
5	75891	26845.730298819756	9873.5349795266
5	75937	26863.026392058251	9886.6473387097
5	75952	26870.393656073039	9893.5264787135
5	75969	26877.589689525099	9891.3225235305
5	75979	26880.531833295168	9893.6470797537
5	75991	26883.032922026735	9892.327462621
5	75996	26884.539659360115	9877.2431994921
5	76003	26889.191961919339	9872.7119375252
5	76025	26892.572289249531	9875.3234544028
5	76030	26893.830287371178	9861.6839119332
5	76044	26899.807672057957	9864.4337803425
5	76060	26905.990110654156	9862.524176189
5	76144	26942.987016287753	9893.8225876848
5	76154	26944.539642827518	9888.8795208323
5	76326	26996.610197945389	9936.4782372813
5	76337	26997.919457110072	9933.6981115878
5	76349	26999.120535949495	9905.9986953417
5	76360	27005.151243684602	9907.6873922822
5	76400	27013.527315657922	9915.4264125328
5	76413	27017.224957390217	9908.9326407848
5	76432	27029.77632962865	9916.5820517563
5	76486	27040.168642500905	9917.4363445075
5	76491	27041.429526685534	9888.2873867814
5	76496	27043.37329135164	9889.3038475924
5	76511	27053.824492748785	9898.1067903074
5	76657	27102.973376330362	9922.2505406156
5	76663	27105.763795500742	9894.8996668652
5	76668	27107.115760157922	9891.8930000661
5	76679	27110.051098600538	9894.7584172628
5	76690	27111.931549740367	9895.1515959275
5	76699	27114.637156470238	9895.6605266694
5	76704	27117.201050479312	9889.6921648825
5	76715	27123.393779720851	9880.5208162892
5	76733	27130.339234014311	9885.3881063556
5	76750	27137.259835506615	9887.3054493402
5	76757	27138.732130489808	9880.2451659776
5	76773	27145.584432422594	9885.1954610918
5	76825	27164.448554742098	9902.2410012835
5	76838	27167.220167168257	9904.9385439974
5	76851	27176.860645539016	9912.7806553584
5	76880	27185.418634689756	9909.2303188604
5	76924	27195.689188583265	9899.2434645331
5	76932	27198.752436751704	9896.5015162825
5	76937	27198.808711632792	9894.1651105761
5	76945	27202.394218424044	9894.1094322664
5	76952	27206.600194591777	9890.1188988627
5	76999	27227.222708244482	9904.8916839087
5	77016	27233.380240428818	9907.04122089
5	77088	27251.925614470677	9925.3047184057
5	77106	27261.349493751816	9931.3861634154
5	77222	27315.522746491489	9980.939344666
5	77233	27317.332107811721	9981.4264919618
5	77238	27321.415748966551	9985.3994330325
5	77249	27327.44400341952	9986.6526635817
5	77264	27330.25336159524	9986.351145807
5	77274	27332.231945453902	9975.6223887865
5	77279	27333.298761591202	9972.9419280013
5	77284	27334.274295417677	9971.5846879085
5	77291	27335.520549600107	9960.8580379516
5	77311	27341.713912904637	9966.1656522588
5	77325	27349.181617843369	9962.0912202561
5	77352	27358.29476057784	9948.1621829856
5	77360	27362.874356308957	9948.2919921477
5	77379	27374.039620570573	9959.4224551482
5	77462	27398.032404719424	9975.195993452
5	77470	27400.963930460314	9976.9825607279
5	77486	27406.743021650443	9976.0958881342
5	77512	27415.364944582631	9984.0875195699
5	77527	27426.042833054258	9992.7414599546
5	77537	27427.785556289051	9985.2596606743
5	77548	27431.965667978389	9983.4785502236
5	77570	27437.912540357722	9980.0103558702
5	77631	27466.300768673268	10004.145810539
5	77641	27467.264054342102	10003.773957123
5	77647	27468.802639915068	10003.526131288
5	77654	27479.332119953266	10013.937867287
5	77669	27489.949337795081	10021.824508479
5	77866	27561.568056307935	10092.515752757
5	77871	27561.589986680816	10085.408296534
5	77877	27563.770061622016	10079.291723292
5	77886	27567.431817221129	10080.023563717
5	77895	27570.963113108026	10081.345269631
5	77934	27582.660170953931	10083.41937709
5	77989	27593.650792635635	10094.379746575
5	78012	27607.339032228848	10107.192234374
5	78052	27619.736734366116	10117.213556612
5	78061	27623.248074971743	10103.666898089
5	78070	27628.491135869421	10102.664227986
5	78086	27631.016902544998	10095.788628194
5	78140	27645.197216642205	10107.930037728
5	78161	27652.161070782777	10109.492883131
5	78241	27680.965203790408	10129.048921004
5	78246	27681.145502020691	10126.165201871
5	78253	27689.38401138933	10134.098453942
5	78262	27693.500649312124	10133.461506034
5	78286	27704.33390077114	10135.673000616
5	78536	27796.916961168915	10212.133767716
5	78541	27798.287316622874	10213.304817978
5	78548	27803.050487223609	10216.573518449
5	78567	27808.745970706498	10214.55503383
5	78577	27812.752526780531	10216.825654063
5	78599	27818.415180257879	10221.320189653
5	78609	27822.588280068544	10223.57585573
5	78898	27926.753106452755	10324.339213993
5	78909	27932.911124005932	10310.620721067
5	78948	27942.980833367341	10314.688502694
5	78986	27958.469132283898	10330.016515493
5	78992	27961.523229466324	10328.44250088
5	78999	27964.227771906194	10326.107739319
5	79014	27968.782487022135	10326.960388531
5	79030	27974.532789171942	10331.859877392
5	79045	27976.812689177876	10330.023661368
5	79060	27981.725942182085	10334.727373799
5	79101	27994.181555032069	10327.230967461
5	79112	27995.811969712769	10325.929515698
5	79117	27995.852287273827	10324.324369446
5	79125	28001.24729422397	10327.15327021
5	79136	28007.584702900526	10333.310379988
5	79171	28016.23600693051	10326.776846106
5	79176	28016.975673279575	10327.510936263
5	79181	28020.667189695507	10330.93077288
5	79188	28025.788621416197	10317.245167929
5	79201	28028.899170674454	10313.666827221
5	79217	28037.673820561306	10292.391430374
5	79228	28039.920676091551	10290.83114522
5	79237	28044.008857014348	10254.898032818
5	79248	28046.574504938586	10254.789761368
5	79253	28046.745327526631	10250.428207335
5	79262	28049.595921902185	10252.929380032
5	79318	28067.311802984458	10251.519789561
5	79356	28077.311006262037	10253.629652355
5	79541	28140.529819207043	10311.884660029
5	79546	28141.649471231351	10305.413372723
5	79563	28155.121336773652	10294.666329161
5	79644	28179.887626560662	10317.912229119
5	79656	28182.673390087016	10318.822354354
5	79664	28183.706864532195	10314.197587652
5	79671	28184.819794730773	10309.448577888
5	79682	28189.231470909481	10302.831381906
5	79700	28191.970721056809	10300.63239575
5	79714	28200.431399616265	10292.621275539
5	79808	28230.414413239517	10306.950807523
5	79815	28233.059080856345	10305.767279792
5	79821	28233.839756888116	10289.574806612
5	79829	28238.554159052256	10293.261981877
5	79836	28243.729594061763	10288.254712995
5	79849	28247.979214445099	10291.947982745
5	79863	28252.134856494592	10290.493947974
5	79880	28256.185372524031	10289.778208867
5	79900	28257.693002168185	10277.719044427
5	79910	28260.503757705105	10276.682164036
5	79928	28265.13164555041	10280.278210239
5	79933	28265.559776870682	10269.222397763
5	79942	28268.213243298797	10269.330399868
5	80002	28298.595220821287	10292.845065707
5	80168	28364.130024043418	10356.44852677
5	80181	28374.665479050201	10365.312334618
5	80263	28408.353395401529	10388.787991648
5	80296	28421.46439720255	10400.900943058
5	80305	28424.139299966804	10397.245530026
5	80315	28432.252107540835	10404.695372004
5	80327	28436.59217232586	10405.006493335
5	80332	28444.519536023689	10393.846946358
5	80339	28447.251229947904	10392.743350166
5	80352	28454.285367693452	10384.909761275
5	80382	28462.714721342525	10378.601631966
5	80393	28466.386060395834	10373.359717261
5	80398	28466.731022485598	10367.870891196
5	80408	28476.73578781363	10377.333361363
5	80419	28478.893893277563	10377.731473712
5	80430	28482.654970851482	10376.890488124
5	80502	28504.062774565605	10398.248336382
5	80517	28512.322583606323	10381.472301144
5	80572	28524.519150309014	10381.890961302
5	80578	28527.48153289351	10384.544432123
5	80585	28530.470579041509	10386.429360279
5	80598	28534.313389992493	10388.198597998
5	80608	28538.496756454337	10389.201700372
5	80622	28541.125214077654	10391.468860431
5	80648	28549.778959397433	10385.330247706
5	80807	28598.161498206866	10429.06521763
5	80865	28621.263114709878	10443.541890988
5	80870	28622.548747582204	10430.324181332
5	80875	28624.348997636786	10420.049132851
5	80886	28629.94687951424	10424.278111633
5	81275	28791.969988104894	10573.35973175
5	81283	28794.206847627618	10573.983151131
5	81290	28795.690057163144	10575.301449667
5	81326	28805.917021414156	10582.013501477
5	81348	28810.344023969277	10579.937899236
5	81361	28813.741156632468	10582.317436408
5	81380	28819.893603736083	10580.98154846
5	81401	28824.320939770253	10558.274742986
5	81408	28827.233405436247	10560.239832977
5	81417	28840.559979101733	10566.997382398
5	81477	28860.149709122273	10584.035926312
5	81519	28873.481150813134	10596.719584606
5	81532	28875.963845682498	10592.920265972
5	81553	28885.062656529378	10596.812011897
5	81558	28885.092426722321	10589.100573467
5	81567	28889.470146470429	10593.42029027
5	81572	28896.808092956012	10595.935892812
5	81579	28902.45433774611	10599.298201705
5	81621	28916.589063834276	10601.941588709
5	81630	28917.160388456278	10600.094751456
5	81645	28924.865073478975	10606.093538924
5	81683	28933.764604517805	10605.600891193
5	81701	28939.418332366444	10607.705805768
5	81710	28947.68592565495	10599.316032621
5	81747	28956.49870508617	10607.859488051
5	81754	28957.91977157725	10603.892662733
5	81768	28964.503622631718	10608.725280749
5	81785	28974.73579261654	10604.215389661
5	82034	29070.994515124561	10697.739410313
5	82045	29073.676832314797	10692.985987044
5	82056	29078.533910053918	10697.787615084
5	82074	29084.673497430956	10703.643861712
5	82088	29088.717747383862	10699.573101126
5	82097	29094.436372004247	10703.137908666
5	82114	29099.470752421125	10695.227140742
5	82375	29185.218780074271	10769.920353531
5	82380	29185.606471490715	10723.440101686
5	82385	29186.404456129347	10714.59709307
5	82395	29190.84336963443	10710.958710817
5	82419	29196.458254700284	10714.452729515
5	82646	29272.341789141815	10782.760329255
5	82655	29275.375008378361	10785.651494043
5	82665	29276.338811890031	10777.502639062
5	82671	29278.640341278748	10774.14879428
5	82680	29282.278997583067	10772.641297002
5	82695	29285.263441670638	10770.128942227
5	82706	29286.719132474873	10761.969228299
5	82712	29289.478489425471	10739.63151112
5	82717	29290.486602631176	10736.469230715
5	82728	29293.698095393944	10733.089852346
5	82751	29299.659953620038	10736.989132813
5	82785	29304.776147903463	10733.543796192
5	82790	29308.456589301084	10727.612153329
5	82802	29310.46667902235	10727.35623287
5	82937	29362.03348248749	10775.500726864
5	82946	29363.648115914351	10772.756617746
5	82954	29367.114947002983	10768.422373483
5	82965	29369.505747480498	10760.899914301
5	82974	29375.45702634744	10765.224859008
5	83000	29381.146358833962	10761.523429979
5	83041	29392.521158889647	10769.739344283
5	83046	29395.150275190387	10766.52084398
5	83051	29396.344447213851	10761.039641533
5	83057	29399.759315645135	10763.392624414
5	83064	29400.842661433752	10755.540348693
5	83087	29405.647233788553	10758.083300691
5	83159	29431.780003494796	10767.300544805
5	83202	29442.214673938766	10764.661595516
5	83246	29454.368241629713	10770.257836578
5	83260	29459.69467132847	10769.464673745
5	83289	29468.700915981013	10778.118664081
5	83296	29471.261532898302	10772.754734341
5	83328	29480.667097560206	10774.616313993
5	83338	29486.485251060736	10779.907074954
5	83345	29487.171594391129	10778.771731295
5	83387	29495.951935004564	10784.746459879
5	83418	29511.727427823181	10777.742245193
5	83423	29516.492787751308	10782.501960655
5	83430	29517.688058382255	10781.478429355
5	83447	29525.046073825366	10785.335212111
5	83458	29530.020573622103	10789.308792008
5	83463	29532.38146849438	10787.624161282
5	83468	29533.026739615197	10786.523731139
5	83473	29534.855386995469	10787.786849692
5	83486	29548.988583092169	10801.590737675
5	83497	29549.481400145237	10794.151992931
5	83502	29550.633022465177	10794.745043532
5	83510	29553.152578626983	10793.363382246
5	83517	29555.625069230852	10794.382485069
5	83524	29559.815883756037	10793.199726906
5	83533	29563.374833291871	10786.202994555
5	83552	29568.048904169892	10786.460568939
5	83585	29586.938697133411	10789.72199944
5	83789	29647.898708199112	10842.46792692
5	83807	29653.397294936227	10846.816466514
5	83827	29657.361552202398	10844.445756434
5	83832	29658.05185051146	10828.818055346
5	83838	29658.517066953502	10823.888078984
5	83847	29659.157509953923	10821.970810082
5	83860	29664.574959408127	10824.335627618
5	83871	29670.353799005131	10828.721439957
5	83912	29687.810209110856	10843.343246893
5	83919	29690.850524640721	10836.957325574
5	83926	29694.223041576771	10827.287939036
5	83933	29700.207645300147	10829.356929561
5	83938	29704.302593406299	10826.818719342
5	83943	29705.880767795567	10824.925943408
5	83948	29706.862384447724	10822.861210579
5	83953	29709.25368225158	10810.190383921
5	83964	29714.1382309278	10814.555948878
5	84054	29746.170504609546	10844.153281713
5	84064	29749.269674789447	10835.89002599
5	84086	29757.52132834165	10843.963692139
5	84101	29761.071218071697	10845.22299768
5	84116	29766.197258786418	10849.302903732
5	84175	29789.256061582137	10859.809834221
5	84439	29871.327825782095	10930.262428711
5	84447	29875.362970925341	10930.149523902
5	84452	29876.370774559839	10928.335252557
5	84459	29881.281729142105	10929.763566212
5	84474	29885.2496931822	10915.845997359
5	84511	29901.24501953527	10916.196013517
5	84520	29905.732468878542	10917.386405421
5	84542	29909.76138245785	10912.814484629
5	84552	29911.045347092393	10891.77804548
5	84561	29911.905354756416	10891.694508388
5	84732	29971.151826722998	10946.671532026
5	84761	29980.29842561122	10951.844978233
5	84769	29981.578409676659	10945.620057105
5	84779	29986.143073648577	10947.010682232
5	84788	29990.763894675352	10949.788984703

