version 2
run Third-n3-8-20191016-14:53:49-11536
attr configname Third-n3
attr datetime 20191016-14:53:49
attr experiment Third-n3
attr inifile omnetpp.ini
attr iterationvars ""
attr iterationvarsf ""
attr measurement ""
attr network org.omnetpp.queueing.Pizza
attr processid 11536
attr repetition 8
attr replication ""
attr resultdir results
attr runnumber 8
attr seedset 8
param **.PS.maxInventoriedPS 3
param **.U1.interArrivalTime exponential(4s)
param **.U2.interArrivalTime exponential(6s)
param **.PS.serviceTimeForInventoryU1 exponential(1.4s)
param **.PS.serviceTimeForInventoryU2 exponential(1.4s)
param **.PS.serviceTimeDirectU1 exponential(1.8s)
param **.PS.serviceTimeDirectU2 exponential(1.8s)
param **.PS.probabilityProducing 0.8
param **.CS.serviceTimeU1 exponential(2.3s)
param **.CS.serviceTimeU2 exponential(2.3s)

vector 0 Pizza.EntryQueueU1 queueLength:vector ETV
attr interpolationmode sample-hold
attr title "queue length, vector"
vector 1 Pizza.CS queueLength:vector ETV
attr interpolationmode sample-hold
attr title "queue length, vector"
vector 2 Pizza.EntryQueueU2 queueLength:vector ETV
attr interpolationmode sample-hold
attr title "queue length, vector"
vector 3 Pizza.sink lifeTime:vector ETV
attr interpolationmode none
attr title "lifetime of arrived jobs, vector"
attr unit s
vector 4 Pizza.sink lifeTimeU2:vector ETV
attr interpolationmode none
attr title "lifetime of arrived jobs, vector"
attr unit s
0	0	0	0
0	21	11.22604812712	1
0	22	14.269973917989	0
0	29	16.062363602195	1
0	30	17.135995277332	0
0	46	22.561433141668	1
0	48	22.782684014948	2
0	52	23.770385768342	3
0	54	24.042680623071	4
0	55	24.708685242644	3
0	63	25.424730338869	4
0	67	26.854963228708	5
0	68	27.304507412544	4
0	74	27.661973143521	5
0	75	27.890076933842	4
0	82	30.448364784494	3
0	86	30.690495576422	4
0	89	31.509734010113	3
0	95	32.300122372694	2
0	104	35.168670123093	3
0	106	36.428311769702	4
0	107	38.725567990544	3
0	112	38.877087437622	2
0	117	39.04076284637	1
0	122	39.382344357183	0
0	126	40.806174377778	1
0	130	43.637858329729	0
0	139	45.451622468623	1
0	143	47.817039482506	2
0	147	48.650909146564	3
0	151	52.596213404984	4
0	153	53.566119324999	5
0	154	53.927682974708	4
0	161	55.69450106025	3
0	167	58.715857055655	2
0	172	60.30888082493	1
0	178	60.977041626765	2
0	182	62.392042331485	1
0	191	63.417070989889	2
0	192	63.726824444481	1
0	197	64.199824099866	0
0	203	64.682354295578	1
0	205	65.181207718067	2
0	206	65.934934445753	1
0	215	68.837243558924	2
0	220	71.574572547644	3
0	223	74.757617285468	2
0	230	75.113065936508	3
0	232	76.202414103545	4
0	233	76.40105664461	3
0	241	81.303974496919	4
0	244	82.511815404244	3
0	250	83.829219226287	4
0	251	84.076821186065	3
0	257	84.935397420515	4
0	262	87.935814658092	5
0	263	88.007296702901	4
0	268	88.460250087318	3
0	274	89.169133871798	4
0	275	89.632683213182	3
0	283	92.473868177515	4
0	284	94.022232561426	3
0	288	94.596931155493	4
0	292	95.540714854735	5
0	293	96.981297719972	4
0	298	97.23795399997	3
0	302	97.69916613516	4
0	309	105.388719576078	3
0	316	107.787069147049	4
0	318	110.976446687447	3
0	324	112.065457969376	4
0	325	113.709768504458	3
0	330	113.940952781621	2
0	335	114.349571966223	1
0	341	115.843030365727	0
0	347	117.326096237183	1
0	348	117.689919631315	0
0	352	118.305665390464	1
0	355	120.204474928556	0
0	361	122.024968080161	1
0	363	123.418782135902	0
0	374	124.044159558228	1
0	377	125.868529567941	0
0	383	126.778700395581	1
0	386	128.204574131496	0
0	392	128.357382110955	1
0	395	133.041147903453	0
0	408	133.450609450763	1
0	409	133.595161094085	0
0	435	136.705324265355	1
0	440	139.237769917983	0
0	456	142.827289164465	1
0	457	143.577658779913	0
0	469	151.087187047348	1
0	470	151.479750090419	0
0	482	154.354227091495	1
0	484	155.183556082363	2
0	485	155.233355392967	1
0	490	155.758095766393	0
0	511	162.709926226353	1
0	514	163.453951298998	2
0	515	164.688620463782	1
0	527	167.073725813672	0
0	533	167.766016469221	1
0	534	168.197860635363	0
0	541	172.626859581482	1
0	542	172.957907226842	0
0	558	177.23792111877	1
0	561	178.001328474438	0
0	567	178.242590567463	1
0	569	182.877146870675	0
0	596	190.389981903466	1
0	598	193.139978976655	2
0	600	194.64436423234	3
0	604	196.091352428122	4
0	606	196.143859787165	5
0	610	196.663993301475	6
0	611	196.713446041532	5
0	616	197.281670205609	4
0	623	198.957934402494	3
0	628	199.889932487908	2
0	635	203.582798829478	1
0	640	204.09306846628	0
0	667	214.315173078716	1
0	668	214.921162926258	0
0	674	216.495742086558	1
0	676	217.421223214394	0
0	685	218.170790319883	1
0	687	218.189730000811	2
0	691	220.309770837463	3
0	692	220.578104804325	2
0	702	221.351009253676	1
0	711	222.847387722278	2
0	712	222.963133133757	1
0	721	226.930535338511	2
0	727	230.036240547617	3
0	729	230.254602994423	4
0	730	231.018944117812	3
0	736	231.52748665433	4
0	738	233.179168084023	3
0	745	234.568530580864	4
0	747	235.715355309576	3
0	756	236.471294174005	4
0	757	236.623525994021	3
0	762	236.708726467216	2
0	767	236.805084304029	1
0	775	243.290169371736	0
0	805	251.185583221755	1
0	807	252.316179449672	2
0	809	252.935818735003	3
0	811	254.287120174339	4
0	817	256.479612605166	5
0	823	261.397045959304	6
0	825	262.388051073576	7
0	828	263.922047697295	6
0	836	266.529962111039	5
0	842	266.652685225809	6
0	844	268.394679126293	5
0	850	270.918271641718	4
0	857	271.706957129244	5
0	859	272.587982097185	6
0	860	273.065934405834	5
0	865	274.389212137887	4
0	871	275.354580609359	3
0	879	283.529948960964	4
0	880	283.607465688262	3
0	885	284.142426952809	2
0	894	284.543485124719	3
0	895	284.611329531243	2
0	901	284.742690328228	3
0	904	285.089759734504	4
0	906	286.224810375535	3
0	920	289.61406097845	2
0	925	289.9626598887	1
0	930	290.867354798238	0
0	936	291.097019738428	1
0	937	295.80363552358	0
0	943	296.535945737701	1
0	946	296.702400662789	2
0	950	301.226834340974	1
0	956	301.292447594529	2
0	960	302.264916327919	1
0	967	303.753157739261	0
0	1002	312.030717381506	1
0	1007	314.769252471348	0
0	1016	319.720115162979	1
0	1017	319.777236272535	0
0	1029	322.24698836196	1
0	1030	323.497168632036	0
0	1054	334.357747251528	1
0	1055	334.720500474992	0
0	1067	339.717188872385	1
0	1069	340.549079567211	0
0	1091	347.326490606368	1
0	1093	347.352958965673	2
0	1094	349.310812370788	1
0	1100	350.634763425038	2
0	1101	352.052712996165	1
0	1109	352.619781043246	2
0	1112	352.953646966034	1
0	1118	353.235393626582	2
0	1122	359.39802876803	1
0	1127	359.880092340246	0
0	1134	361.319349521739	1
0	1136	362.498728616947	0
0	1142	363.503056645275	1
0	1144	363.56448319988	2
0	1146	364.210644141006	1
0	1151	365.391131977725	0
0	1175	371.691682107419	1
0	1176	371.694202893225	0
0	1183	373.019147596008	1
0	1186	375.786776666859	2
0	1191	376.935802631564	3
0	1193	377.794019385062	4
0	1195	379.329775476839	5
0	1198	380.999423923504	4
0	1204	382.084855392103	5
0	1211	383.305635284259	4
0	1217	385.174346835583	3
0	1222	387.699358382512	2
0	1229	390.018050335008	3
0	1231	390.634812526619	4
0	1233	392.820896653477	5
0	1241	394.322030269236	6
0	1243	396.166082871118	7
0	1245	396.545745388556	8
0	1247	397.605918401171	9
0	1250	398.318155153159	8
0	1257	400.477132061843	7
0	1262	400.488255819819	6
0	1266	400.959402346019	7
0	1271	404.770010359421	6
0	1275	405.156123566278	7
0	1277	405.659560489133	8
0	1280	409.716934567348	7
0	1286	410.157294240386	8
0	1292	411.245384718137	7
0	1299	415.983372773489	8
0	1300	416.643199469002	7
0	1305	416.715802768643	6
0	1311	416.752675909434	7
0	1314	417.647587995775	8
0	1315	418.114015942982	7
0	1320	418.18762126377	6
0	1326	418.888191252216	7
0	1331	422.613418368945	8
0	1332	422.88083300572	7
0	1337	423.554423304963	6
0	1343	425.661398779982	7
0	1344	428.704549190757	6
0	1349	429.360562745497	5
0	1355	434.513003488559	6
0	1361	436.091498073726	7
0	1363	436.165485102793	8
0	1368	436.764131531335	9
0	1370	441.992102838044	10
0	1372	442.284134050163	11
0	1374	444.181085376354	12
0	1375	445.128395871747	11
0	1380	446.489286086945	10
0	1389	450.291872591151	9
0	1394	450.294584644188	8
0	1400	452.187291596086	9
0	1401	453.49327183154	8
0	1410	455.128290807017	9
0	1413	456.185619767981	8
0	1420	456.691579521969	9
0	1421	460.19155367563	8
0	1428	462.253892992562	7
0	1437	462.370837818401	8
0	1439	464.373110088741	9
0	1442	466.962293647452	10
0	1446	468.366758024468	11
0	1450	470.826578498442	12
0	1453	473.853342950348	11
0	1458	474.238500378122	10
0	1466	477.244639858588	9
0	1474	477.725907234087	10
0	1475	478.831411644756	9
0	1484	483.446035603175	10
0	1486	487.29619112352	11
0	1488	490.48032102586	12
0	1491	490.885781401179	11
0	1497	491.905669622088	10
0	1503	493.662473252633	9
0	1509	494.894086521273	10
0	1510	495.311118936485	9
0	1516	495.804910182731	8
0	1522	496.088287182364	7
0	1528	496.461298730161	8
0	1532	501.059219689309	9
0	1536	504.860321015465	10
0	1537	509.195763066308	9
0	1544	511.252041027699	10
0	1546	511.489465514187	11
0	1547	511.801488966314	10
0	1555	517.546834933185	9
0	1561	518.460702082373	8
0	1566	518.488091554025	7
0	1572	518.796220618258	8
0	1576	520.816520176538	7
0	1582	523.103497563023	8
0	1584	524.144364924348	9
0	1586	527.129247450269	10
0	1587	528.291385282483	9
0	1593	528.951289112715	8
0	1598	529.069013754265	7
0	1602	529.274315568427	8
0	1604	530.502248058045	9
0	1606	530.965354300726	10
0	1614	534.714927626267	9
0	1620	539.798216675467	8
0	1627	540.848640704258	9
0	1628	543.677709861772	8
0	1633	544.372750600992	7
0	1639	545.302865538882	8
0	1643	547.338005640293	7
0	1650	550.207841655294	6
0	1656	551.888310856036	5
0	1662	552.387291449691	4
0	1670	555.887627924012	3
0	1676	556.366827243469	4
0	1678	563.90214324463	5
0	1679	564.980527113452	4
0	1684	565.198157076695	3
0	1690	565.953879069615	2
0	1696	566.599022605649	3
0	1701	569.92055656801	2
0	1707	570.976468561759	3
0	1708	571.511224960507	2
0	1715	572.88316414599	1
0	1719	574.847333409851	2
0	1725	578.283052651932	3
0	1729	579.795975450529	4
0	1730	579.849886687431	3
0	1737	581.741138145056	2
0	1742	581.755218748565	1
0	1749	583.285499964533	2
0	1752	583.645740948417	1
0	1757	583.817299312555	0
0	1763	585.346754395418	1
0	1767	589.180952000074	2
0	1769	589.434945188921	3
0	1772	592.119643143358	2
0	1776	594.823088565372	3
0	1778	595.287524974798	4
0	1781	597.036459114845	3
0	1787	600.976198821067	4
0	1793	603.267870969843	5
0	1794	604.467980905783	4
0	1801	605.331398325176	3
0	1805	605.366770652409	4
0	1807	605.817746860743	5
0	1813	611.894007904801	6
0	1818	614.132312316225	7
0	1819	614.397133426962	6
0	1825	614.657393809295	7
0	1826	614.818256317182	6
0	1833	615.11097248944	5
0	1838	615.320848509792	4
0	1844	617.614000825573	5
0	1846	618.420922631057	4
0	1852	619.016662223599	5
0	1854	619.169906597419	6
0	1858	622.318882711629	7
0	1859	623.855193400714	6
0	1865	624.667573178831	7
0	1867	625.833065651627	6
0	1873	626.402087094202	7
0	1874	628.322956445999	6
0	1881	631.639880611663	7
0	1885	633.166219904517	6
0	1890	634.164467312356	5
0	1900	636.908292658287	4
0	1906	638.146331052118	3
0	1912	640.067167730521	2
0	1917	641.132573743124	1
0	1923	641.977236958142	0
0	1931	642.636582668633	1
0	1932	643.456511479754	0
0	1943	643.846452432336	1
0	1949	649.746723547273	0
0	1959	650.449840214891	1
0	1961	650.517928510697	2
0	1963	651.604336733608	1
0	1970	652.925261320685	2
0	1971	654.114318517126	1
0	1977	654.961185539867	0
0	1995	657.786047304007	1
0	1997	662.271914265736	2
0	1998	662.384743417357	1
0	2005	664.41754727944	2
0	2006	666.799346509542	1
0	2011	667.250938943405	0
0	2017	667.414757520997	1
0	2020	669.445431601743	0
0	2026	669.946115023469	1
0	2027	670.09126642853	0
0	2040	674.403168480408	1
0	2041	675.1117470921	0
0	2056	679.301966421974	1
0	2061	683.379454417837	0
0	2068	684.758289257483	1
0	2070	685.287366423554	2
0	2072	686.600465136254	3
0	2074	688.581748666048	4
0	2076	690.35382984661	5
0	2077	691.362809720083	4
0	2083	693.255887155603	3
0	2091	702.027329242494	2
0	2097	702.484120575217	3
0	2098	703.258813716197	2
0	2105	703.738933153329	1
0	2110	703.747113888765	0
0	2114	705.219063704395	1
0	2117	707.897538980565	0
0	2121	709.299211352349	1
0	2123	710.211637630258	2
0	2125	712.070111292093	3
0	2128	714.878264035338	2
0	2135	720.824802573247	1
0	2141	721.723179682647	0
0	2152	723.978637697671	1
0	2154	724.009517580679	2
0	2159	725.811807267897	1
0	2167	727.902829941796	0
0	2176	729.908788272694	1
0	2179	732.496198027017	0
0	2185	733.652666955206	1
0	2186	734.286199172836	0
0	2200	736.512121056957	1
0	2204	739.539847133018	2
0	2207	742.373567556164	1
0	2216	744.78917781593	0
0	2261	757.801409926561	1
0	2264	758.533998637682	0
0	2272	759.310641429292	1
0	2273	760.474091257212	0
0	2309	771.311801215676	1
0	2310	772.408149197702	0
0	2330	777.456157809758	1
0	2333	778.243585773604	0
0	2340	780.780047101211	1
0	2344	784.342872324022	2
0	2347	788.499110791879	1
0	2353	788.806494648001	2
0	2355	789.485514065794	3
0	2357	791.629060243668	2
0	2362	793.644160581498	1
0	2371	794.744198077089	0
0	2380	796.990443449144	1
0	2381	797.004597878468	0
0	2388	798.124708830483	1
0	2391	798.625001070019	2
0	2394	801.658801354793	1
0	2400	802.097985388013	2
0	2401	802.254708117331	1
0	2407	803.731654280898	0
0	2440	813.259052421664	1
0	2441	813.42065749394	0
0	2458	817.957389186666	1
0	2460	819.192075444141	2
0	2461	819.951007261102	1
0	2467	820.941088541079	0
0	2481	826.358404099834	1
0	2483	827.531012780822	0
0	2502	829.256694505484	1
0	2503	829.41234685674	0
0	2510	831.844936459187	1
0	2513	832.818050027293	0
0	2520	834.184365490183	1
0	2522	834.775127930923	2
0	2524	836.212817511288	3
0	2525	837.929365139652	2
0	2531	844.183239614396	1
0	2538	845.178138246081	0
0	2552	849.576943288555	1
0	2553	850.217713476525	0
0	2564	851.586114205684	1
0	2566	852.382968781198	2
0	2569	853.115017782973	3
0	2571	853.48466637747	4
0	2572	854.176981901741	3
0	2579	855.085828742657	4
0	2581	857.540601974625	5
0	2582	858.57626530521	4
0	2587	859.092452093211	3
0	2595	862.91181622558	4
0	2598	866.028499299319	3
0	2603	867.111092041108	2
0	2615	873.815429382058	3
0	2616	875.507730673532	2
0	2623	876.948866376612	3
0	2625	879.280949952258	4
0	2626	880.591923883985	3
0	2632	882.173799267919	2
0	2639	883.416605047812	1
0	2644	883.75644913418	0
0	2654	886.622758386546	1
0	2655	886.769983110789	0
0	2661	886.798231847421	1
0	2663	887.997880796733	0
0	2681	889.214641901405	1
0	2683	890.257599954067	0
0	2702	894.158742632038	1
0	2703	895.809159031943	0
0	2715	898.593106743671	1
0	2717	899.210337407733	0
0	2735	902.385383702411	1
0	2736	902.676301988471	0
0	2748	903.961111645129	1
0	2752	913.127382948875	0
0	2759	916.712614046665	1
0	2761	919.98227848655	2
0	2762	920.823690104742	1
0	2767	922.105522670182	0
0	2774	925.70548765226	1
0	2776	927.394224768697	0
0	2784	929.064075403085	1
0	2786	929.498923244267	0
0	2810	934.68103080042	1
0	2813	939.900092439786	0
0	2819	940.085257599928	1
0	2820	940.241570145113	0
0	2833	943.629025244449	1
0	2835	945.550215991161	0
0	2855	950.803741109768	1
0	2857	951.734165732216	2
0	2859	953.778827073436	1
0	2866	954.775912666283	0
0	2884	958.716164897295	1
0	2886	959.022790986348	2
0	2888	959.193938050601	3
0	2889	961.289220467032	2
0	2895	967.372577471944	1
0	2901	968.879075373647	2
0	2902	969.04590956535	1
0	2907	969.40062841948	0
0	2922	974.770657502961	1
0	2925	976.13338722565	2
0	2929	976.844089503293	3
0	2930	978.03157121694	2
0	2937	979.292315747714	3
0	2939	980.381109406024	4
0	2940	982.33632717917	3
0	2946	985.909133489998	2
0	2954	989.363772722272	3
0	2955	991.855288702473	2
0	2960	992.086901603639	1
0	2966	993.69410342997	2
0	2970	994.175932524114	1
0	2975	994.432782751432	0
0	2983	994.910150124307	1
0	2985	995.162873033968	2
0	2989	996.303981038307	3
0	2990	996.840495608289	2
0	2997	997.363391475002	1
0	3005	998.281943596731	2
0	3006	999.471411389689	1
0	3012	999.538633199453	2
0	3014	1001.998152827666	3
0	3016	1002.383340368221	2
0	3026	1006.095317788202	1
0	3033	1007.514271813199	0
0	3049	1011.50136679317	1
0	3054	1019.856089012872	0
0	3060	1020.166505942866	1
0	3062	1020.769597426359	0
0	3068	1021.821608039078	1
0	3071	1022.881724553977	0
0	3103	1035.591150243117	1
0	3111	1037.115820382811	2
0	3112	1037.282901914463	1
0	3118	1038.636975011976	0
0	3127	1041.06325506396	1
0	3128	1045.246102799329	0
0	3150	1051.595723598209	1
0	3151	1051.66954313545	0
0	3176	1058.637178271805	1
0	3178	1059.290111824484	2
0	3181	1059.471980593133	1
0	3190	1064.387619420394	0
0	3210	1067.391035639967	1
0	3213	1069.909514096842	0
0	3219	1070.533196756302	1
0	3221	1071.431418394959	0
0	3236	1074.681049279939	1
0	3241	1075.500870940572	0
0	3249	1076.493393038308	1
0	3253	1077.925925177217	2
0	3256	1081.972160576755	1
0	3262	1086.851462431322	0
0	3285	1097.924501483207	1
0	3289	1099.351075839983	2
0	3292	1104.760410673495	1
0	3298	1104.916283009063	2
0	3299	1105.283072648227	1
0	3310	1108.510306832406	2
0	3315	1112.703953120963	1
0	3323	1114.417446751634	0
0	3337	1117.793546418602	1
0	3338	1117.933875462335	0
0	3360	1122.611717324256	1
0	3364	1123.59674519291	0
0	3370	1124.660773867972	1
0	3371	1125.009108407836	0
0	3377	1125.380054899088	1
0	3379	1127.11339759499	0
0	3391	1128.892894912125	1
0	3394	1134.768253520701	2
0	3398	1136.099200517645	3
0	3399	1138.027797311831	2
0	3405	1138.58542552683	1
0	3412	1139.332719912494	0
0	3418	1139.344549118364	1
0	3421	1139.762149835845	0
0	3427	1140.409395641415	1
0	3429	1141.828336648166	2
0	3432	1143.471371625529	3
0	3440	1145.320752915845	4
0	3442	1145.326492537155	5
0	3443	1146.411824650711	4
0	3449	1148.280262975146	5
0	3451	1148.840919476441	6
0	3453	1151.490734128108	5
0	3459	1154.135097428853	4
0	3468	1161.673531036546	3
0	3473	1162.709676856607	2
0	3478	1163.028771613696	1
0	3483	1163.238980514617	0
0	3487	1163.660300657164	1
0	3490	1166.468278034869	0
0	3511	1173.140693916831	1
0	3512	1178.069531274494	0
0	3523	1182.308480461106	1
0	3524	1182.782041434407	0
0	3548	1188.968225616567	1
0	3550	1190.295877840427	2
0	3551	1190.31407688879	1
0	3559	1192.485283200453	0
0	3565	1192.962495376873	1
0	3567	1193.148252481667	2
0	3570	1196.237828048523	1
0	3579	1198.572745725966	2
0	3580	1200.375136127847	1
0	3586	1201.155133822219	0
0	3594	1202.536825474756	1
0	3598	1204.893295175605	0
0	3615	1209.404861763439	1
0	3617	1209.996729383862	2
0	3622	1211.410808469007	1
0	3627	1211.793201433213	0
0	3649	1219.896553815842	1
0	3652	1221.737738375263	0
0	3662	1230.136988161273	1
0	3667	1233.325220521499	0
0	3679	1234.317843660788	1
0	3680	1234.795147117428	0
0	3687	1237.691717298557	1
0	3691	1239.747687137332	2
0	3694	1240.12994258771	1
0	3703	1244.560810098971	2
0	3704	1244.914755034331	1
0	3713	1247.616537620926	2
0	3717	1248.150228713126	3
0	3720	1248.948297728066	4
0	3721	1249.153452139473	3
0	3728	1250.199477632659	2
0	3736	1252.354469116798	1
0	3744	1255.944484399351	2
0	3746	1256.02873149034	3
0	3749	1258.297754536044	4
0	3751	1258.757219189249	5
0	3753	1259.4084591911	6
0	3754	1260.727527348273	5
0	3760	1261.130032604525	4
0	3767	1262.215461010775	5
0	3773	1267.648313246747	6
0	3775	1267.822336486235	7
0	3776	1270.066114075402	6
0	3782	1271.521048014887	5
0	3789	1272.682424891722	6
0	3790	1275.839079509129	5
0	3796	1276.836286857329	6
0	3798	1277.184350477	5
0	3803	1277.430617347827	4
0	3808	1277.683924450629	3
0	3816	1279.571061735731	4
0	3826	1282.684337690918	3
0	3832	1284.33328528378	2
0	3838	1285.030097689404	1
0	3845	1287.507682424461	2
0	3850	1289.631963311121	1
0	3856	1290.348251505195	0
0	3862	1290.726413039197	1
0	3863	1291.153384299347	0
0	3870	1293.539030508199	1
0	3874	1294.279283478859	2
0	3875	1294.816458488875	1
0	3880	1294.855311891045	0
0	3886	1295.242515955062	1
0	3888	1295.48113348851	0
0	3900	1296.929489975087	1
0	3905	1297.42716320358	0
0	3918	1299.849682972088	1
0	3919	1300.17829390037	0
0	3934	1308.76790190198	1
0	3939	1310.354450619112	0
0	3951	1312.051571497496	1
0	3953	1313.669526960159	0
0	3969	1316.641110691051	1
0	3972	1316.962194267299	0
0	3978	1318.717468177602	1
0	3979	1318.997601848216	0
0	3995	1321.893472799268	1
0	3996	1323.299355188793	0
0	4017	1334.290996018079	1
0	4019	1334.444722498459	2
0	4025	1341.480424014015	3
0	4028	1343.985933865606	2
0	4033	1345.219572320189	1
0	4039	1345.621093798463	2
0	4040	1345.651621392541	1
0	4051	1349.688774504684	0
0	4071	1354.286085437931	1
0	4073	1356.066633879883	0
0	4079	1356.313284565877	1
0	4084	1358.040114556502	0
0	4107	1363.836039758735	1
0	4108	1365.767183699027	0
0	4127	1372.958546486694	1
0	4131	1373.948240807232	2
0	4132	1374.750553085892	1
0	4140	1376.270620432233	2
0	4142	1377.179491923231	3
0	4146	1378.443184305987	4
0	4147	1380.047948351038	3
0	4153	1381.830253551698	2
0	4161	1382.608452459304	3
0	4162	1382.826477771155	2
0	4168	1383.248783855461	3
0	4176	1385.335178249211	4
0	4178	1385.44793197782	5
0	4184	1388.064780202325	6
0	4192	1394.06429087854	7
0	4193	1396.52813149934	6
0	4198	1396.777092505883	5
0	4203	1397.214376363428	4
0	4208	1397.857385386799	3
0	4215	1398.912791808025	4
0	4219	1402.19615180207	5
0	4220	1402.347455246057	4
0	4226	1403.179054903263	3
0	4231	1403.239512661186	2
0	4236	1406.896204081759	1
0	4241	1408.213660936488	0
0	4248	1411.16374782693	1
0	4249	1411.397736696785	0
0	4265	1415.220537392945	1
0	4268	1416.9576022105	0
0	4272	1418.894704353353	1
0	4279	1422.252831976007	2
0	4281	1423.66077842058	3
0	4282	1423.930491475967	2
0	4288	1423.959400210501	3
0	4291	1424.821493784001	4
0	4294	1426.79390647124	3
0	4300	1428.303399890256	4
0	4301	1428.40159962912	3
0	4310	1429.809611248017	4
0	4313	1430.678512707307	5
0	4315	1432.514063469306	6
0	4316	1432.836123686569	5
0	4321	1432.982370032451	4
0	4326	1433.038920633877	3
0	4331	1433.990584321712	2
0	4337	1434.599518728728	1
0	4344	1437.256824459174	0
0	4350	1437.7846360128	1
0	4355	1439.557719228559	2
0	4357	1440.606791644765	3
0	4360	1442.399833431613	4
0	4362	1446.257015106801	5
0	4363	1446.47399878112	4
0	4368	1446.61314304474	3
0	4373	1446.885823914633	2
0	4378	1447.040532878202	1
0	4382	1447.418502568103	2
0	4384	1448.712167815109	3
0	4392	1452.886703131767	2
0	4402	1455.690056452273	1
0	4408	1455.901096849177	2
0	4412	1457.280608935687	1
0	4418	1461.170560936113	0
0	4433	1466.078938547615	1
0	4438	1467.719595877313	0
0	4444	1468.185209880084	1
0	4446	1469.436143343147	2
0	4450	1472.862448473754	3
0	4451	1473.838218829449	2
0	4456	1474.76788921671	1
0	4465	1477.043313723292	0
0	4472	1477.290024976927	1
0	4473	1479.79117498231	0
0	4487	1484.23825095987	1
0	4495	1489.753802076665	2
0	4499	1492.263503753437	3
0	4505	1495.877724158803	2
0	4515	1498.525718540533	3
0	4516	1498.901066723527	2
0	4524	1500.71442870068	1
0	4530	1501.161472553458	0
0	4546	1508.204453611244	1
0	4549	1510.703396301814	0
0	4555	1510.703831315085	1
0	4558	1514.23369582269	0
0	4565	1516.358914652115	1
0	4566	1517.111019748952	0
0	4578	1519.56058709163	1
0	4581	1521.279116821915	0
0	4598	1526.65470277183	1
0	4600	1526.965822563801	2
0	4601	1527.420357334791	1
0	4606	1527.633754826151	0
0	4634	1534.960932289729	1
0	4639	1539.382267392341	0
0	4663	1546.495008195625	1
0	4664	1550.732472254388	0
0	4672	1551.284818387625	1
0	4676	1552.466707230928	0
0	4689	1554.515342319369	1
0	4691	1554.972883535712	2
0	4694	1558.443586798868	1
0	4700	1559.108822443251	2
0	4701	1563.622296817014	1
0	4706	1563.816549290114	0
0	4716	1566.213698634655	1
0	4719	1567.116775655667	0
0	4727	1568.632461268075	1
0	4730	1570.614352092033	0
0	4737	1572.899670350014	1
0	4738	1573.41854490209	0
0	4751	1575.184506792833	1
0	4753	1575.246397440819	2
0	4760	1580.04980077248	1
0	4766	1581.420048663909	0
0	4803	1593.248466086092	1
0	4808	1599.521929373199	0
0	4815	1601.882130562598	1
0	4816	1602.2955266697	0
0	4839	1610.273183393299	1
0	4842	1612.047145154812	0
0	4864	1624.208342762363	1
0	4869	1624.936613652326	0
0	4878	1626.896902531285	1
0	4886	1633.842966640469	2
0	4888	1634.90757464366	1
0	4894	1635.146068932448	2
0	4896	1635.171188147727	3
0	4898	1635.322405935921	4
0	4901	1638.656789961942	5
0	4903	1640.201056691075	6
0	4905	1645.370612730061	7
0	4906	1645.678912945045	6
0	4911	1645.936323816253	5
0	4916	1647.181283494945	4
0	4923	1649.337005314789	3
0	4927	1650.652904944749	4
0	4931	1651.038953156051	3
0	4936	1651.057581297107	2
0	4940	1651.667564531614	3
0	4944	1652.955035746293	2
0	4952	1655.367974520849	1
0	4957	1655.41256743179	0
0	4963	1655.653977578619	1
0	4965	1657.918266810047	0
0	4982	1660.69419468382	1
0	4990	1668.71183200258	2
0	4993	1670.181408657349	1
0	4999	1672.091571482121	2
0	5002	1673.091495747053	3
0	5003	1673.213850039156	2
0	5010	1674.427602575697	3
0	5011	1675.05421293293	2
0	5018	1677.1677242158	3
0	5020	1682.155451000522	4
0	5021	1683.490800680159	3
0	5027	1683.83821948463	4
0	5031	1684.624492221897	5
0	5032	1685.363445964466	4
0	5037	1688.017318315003	3
0	5043	1688.130126181378	4
0	5045	1692.155239641971	5
0	5047	1692.322320424557	6
0	5054	1693.248896877413	5
0	5059	1693.39629120665	4
0	5064	1693.727857577381	3
0	5069	1695.386699794394	2
0	5076	1702.902334244613	1
0	5081	1704.895358315736	0
0	5095	1712.500815545981	1
0	5096	1713.628522240688	0
0	5127	1723.301897480626	1
0	5128	1723.738280137502	0
0	5147	1731.861416075576	1
0	5148	1733.194920388398	0
0	5154	1734.956191167012	1
0	5155	1735.349254000199	0
0	5175	1739.665404266315	1
0	5177	1740.268966473024	2
0	5183	1742.60528691417	1
0	5189	1742.662897616494	2
0	5190	1742.969761706337	1
0	5196	1743.683123803472	2
0	5200	1745.648645045257	3
0	5202	1746.900799641679	4
0	5203	1748.574792714399	3
0	5211	1749.821148039327	2
0	5221	1752.488438661967	1
0	5228	1753.538982108455	0
0	5234	1753.824717324309	1
0	5235	1754.765863040988	0
0	5244	1755.809827903492	1
0	5247	1759.119449710624	0
0	5259	1762.853535446024	1
0	5261	1763.256351374447	2
0	5262	1763.898867946824	1
0	5269	1765.34918061112	0
0	5281	1766.719064158038	1
0	5283	1767.398053485456	2
0	5285	1767.435294057639	3
0	5287	1767.983286224137	2
0	5299	1771.390648813639	3
0	5301	1774.21707885462	2
0	5307	1774.461038901385	3
0	5309	1774.965718879341	4
0	5311	1777.19087957536	3
0	5317	1777.55893593725	2
0	5324	1778.10653174259	3
0	5325	1778.118083995167	2
0	5331	1778.154206749543	3
0	5334	1779.084048605688	4
0	5338	1780.377099261582	5
0	5340	1781.345902984533	4
0	5346	1783.767045108472	3
0	5351	1788.366654227952	2
0	5357	1788.528185760653	3
0	5358	1789.391071166108	2
0	5362	1790.888386392927	3
0	5366	1793.488121826505	2
0	5372	1793.840281121502	3
0	5374	1794.856912210006	4
0	5376	1794.898486550079	5
0	5378	1795.289783325194	6
0	5381	1798.680386548262	5
0	5389	1800.553589828539	4
0	5394	1800.906342538236	3
0	5401	1804.720268389291	2
0	5406	1807.249882815372	1
0	5414	1811.342814348966	0
0	5431	1813.143660230344	1
0	5435	1814.645316223524	0
0	5452	1817.765395646419	1
0	5454	1819.663194990076	0
0	5471	1826.920502224056	1
0	5472	1827.235680120487	0
0	5492	1831.139373283987	1
0	5494	1833.582035549927	0
0	5511	1840.083544666365	1
0	5512	1846.4374915429	0
0	5524	1848.262364433003	1
0	5526	1850.010099401116	2
0	5528	1850.748631605827	3
0	5533	1856.169474109179	2
0	5540	1858.848952181064	1
0	5547	1863.59069636314	2
0	5549	1864.12888158029	3
0	5550	1866.224041242522	2
0	5555	1867.188427073178	1
0	5562	1869.190432486421	0
0	5576	1870.702169736962	1
0	5578	1871.00802248935	2
0	5579	1871.856227578909	1
0	5585	1872.33179115034	2
0	5587	1872.995781881618	1
0	5596	1875.254990099261	2
0	5598	1875.591081006856	3
0	5599	1875.626167743731	2
0	5604	1877.241043778902	1
0	5613	1881.497823219442	2
0	5615	1883.512688506583	3
0	5616	1883.993124785757	2
0	5624	1886.757767331476	3
0	5626	1887.498405227197	2
0	5631	1888.966829231613	1
0	5637	1889.991567403762	0
0	5683	1907.420655075619	1
0	5686	1910.619503275681	0
0	5701	1913.136695488837	1
0	5704	1918.562726593418	0
0	5729	1924.88622513908	1
0	5730	1926.059021588957	0
0	5746	1931.346255482456	1
0	5749	1934.908795250882	0
0	5755	1935.011802544011	1
0	5762	1941.319788665973	2
0	5763	1942.816243854153	1
0	5769	1943.156741671995	0
0	5814	1957.179146982032	1
0	5815	1962.030685678608	0
0	5822	1963.075931703852	1
0	5824	1965.787923106105	0
0	5830	1966.000007963228	1
0	5832	1968.008884663709	0
0	5861	1980.229322438708	1
0	5863	1981.097583068662	2
0	5866	1983.230481793666	1
0	5872	1986.938155266579	0
0	5878	1988.066391134551	1
0	5880	1988.6352073914	0
0	5901	1996.619217199855	1
0	5903	1998.965557443997	2
0	5904	1999.463031977864	1
0	5910	2001.388389727093	0
0	5930	2005.910776724543	1
0	5932	2006.917188000698	2
0	5934	2007.983805835962	3
0	5935	2008.24858816847	2
0	5940	2008.627318885288	1
0	5946	2009.303100536767	2
0	5949	2012.045498721676	1
0	5954	2012.061192501434	0
0	5968	2016.579489551136	1
0	5969	2017.095684720993	0
0	5989	2021.10052291624	1
0	5992	2023.221371394724	0
0	6019	2029.10084874891	1
0	6027	2034.255361735405	2
0	6028	2034.560213754359	1
0	6035	2037.712928856916	2
0	6036	2038.687718316343	1
0	6044	2042.576845916679	0
0	6070	2066.739900363744	1
0	6075	2068.211537207471	0
0	6081	2068.570728918545	1
0	6082	2069.228338104063	0
0	6096	2073.420534826705	1
0	6102	2075.734873010306	2
0	6104	2077.825559960999	3
0	6111	2081.671211492576	2
0	6117	2081.756000238109	3
0	6118	2081.809273742048	2
0	6124	2081.972011153914	3
0	6126	2082.900433368215	2
0	6134	2086.80220090694	1
0	6143	2087.696274554259	2
0	6144	2087.889322671918	1
0	6151	2088.80215526676	2
0	6152	2088.885813365091	1
0	6158	2090.030434530223	2
0	6160	2090.126315927047	3
0	6162	2091.816549488676	2
0	6168	2092.327239879603	3
0	6169	2092.388747962886	2
0	6176	2097.151887874474	1
0	6182	2097.381841808117	2
0	6185	2098.087422542543	1
0	6190	2099.678254358449	0
0	6200	2102.057516332696	1
0	6202	2102.749806927096	0
0	6218	2104.57405343092	1
0	6224	2110.59775864039	2
0	6225	2110.602377753555	1
0	6231	2110.96142388152	2
0	6235	2113.830105457827	1
0	6241	2114.557216983792	2
0	6242	2114.7300087987	1
0	6247	2114.789338952876	0
0	6253	2114.933901644388	1
0	6255	2116.818499096541	0
0	6308	2129.354956799336	1
0	6316	2131.448039481426	0
0	6340	2141.392147178117	1
0	6341	2142.900027592276	0
0	6359	2148.475780202431	1
0	6360	2149.113591620961	0
0	6366	2149.288280653961	1
0	6369	2150.245310603782	2
0	6370	2152.040312139274	1
0	6377	2153.400678342369	2
0	6381	2156.958087118236	3
0	6383	2160.549484426135	4
0	6385	2163.393589611587	5
0	6388	2164.720394055039	4
0	6394	2166.005179138321	3
0	6400	2166.609729045755	2
0	6405	2167.830685495197	1
0	6414	2170.138325962571	0
0	6423	2170.187087376896	1
0	6425	2170.416922848119	2
0	6432	2173.013460193918	3
0	6433	2173.130873173395	2
0	6439	2176.356976602799	1
0	6451	2181.444474092655	2
0	6453	2181.594624710911	3
0	6454	2181.617337703843	2
0	6459	2182.91596900594	1
0	6465	2183.177602712035	2
0	6468	2187.672979971905	1
0	6475	2187.846942974756	0
0	6483	2188.96395551333	1
0	6484	2189.232519101764	0
0	6491	2190.464871356151	1
0	6493	2190.75650695334	2
0	6494	2191.052831436514	1
0	6500	2191.401892498187	2
0	6502	2194.248467589192	3
0	6504	2194.330066217298	4
0	6505	2194.376977500988	3
0	6509	2194.797275599925	4
0	6514	2197.748416923334	3
0	6518	2199.592240138106	4
0	6523	2201.232143541262	5
0	6524	2201.466212164195	4
0	6531	2202.842143070195	3
0	6538	2205.71799951762	2
0	6544	2205.939715591442	3
0	6546	2206.917732667983	4
0	6549	2208.020061226472	5
0	6555	2209.782206718786	6
0	6556	2212.067956666164	5
0	6562	2212.264118371576	6
0	6567	2215.370067478528	7
0	6568	2216.54972185003	6
0	6575	2220.359148609198	7
0	6577	2222.907146043871	8
0	6578	2223.900694941809	7
0	6583	2224.07316424027	6
0	6590	2226.11036258036	7
0	6591	2226.990495337966	6
0	6596	2227.708197934812	5
0	6601	2228.400326450016	4
0	6607	2230.868937161108	3
0	6613	2231.33561808796	4
0	6617	2232.191834230226	5
0	6621	2237.141801466206	4
0	6627	2241.452814386561	5
0	6635	2244.354992352869	6
0	6636	2246.310542732377	5
0	6643	2249.037960139302	4
0	6649	2249.804170750327	3
0	6655	2250.746318145957	4
0	6657	2251.4948493604	5
0	6659	2253.444380837527	6
0	6661	2255.61248184955	5
0	6670	2259.463245688898	4
0	6676	2260.121503977129	3
0	6681	2260.737181732331	2
0	6689	2267.621250650632	1
0	6697	2271.917644901362	0
0	6717	2276.07430406641	1
0	6718	2277.128629166184	0
0	6732	2279.171431960964	1
0	6735	2280.986272059965	2
0	6737	2281.778741582452	3
0	6738	2285.764235893407	2
0	6745	2285.833707171252	3
0	6746	2288.988711857769	2
0	6758	2289.810931404414	1
0	6763	2289.924762828915	0
0	6783	2294.475099936456	1
0	6785	2294.871143422636	2
0	6787	2294.877793943203	3
0	6788	2296.493897476497	2
0	6796	2299.268303783876	1
0	6802	2300.161201082529	0
0	6809	2303.331182879557	1
0	6812	2304.391705541581	0
0	6838	2309.546344003977	1
0	6843	2310.582797552966	2
0	6846	2311.199852574525	1
0	6852	2314.379497112678	0
0	6859	2318.017289337193	1
0	6860	2318.95621948049	0
0	6877	2324.173649655342	1
0	6878	2324.385373789816	0
0	6894	2327.464944900269	1
0	6896	2329.396453357097	2
0	6901	2330.766918778596	1
0	6912	2339.127465854223	0
0	6935	2341.248228380718	1
0	6936	2342.887073876035	0
0	6951	2345.1796647146	1
0	6953	2347.297024190528	2
0	6955	2347.796338683087	3
0	6959	2351.506705736406	4
0	6962	2354.016658398137	3
0	6967	2354.074203835871	2
0	6974	2355.417900454904	1
0	6979	2355.545065904156	0
0	6986	2356.402549908389	1
0	6987	2357.099519164298	0
0	7017	2359.973969322629	1
0	7019	2361.093492126608	2
0	7021	2361.977509027066	3
0	7024	2364.450695373434	2
0	7033	2370.715947598587	1
0	7042	2372.974578721038	2
0	7045	2373.459856983752	1
0	7050	2373.654144745632	0
0	7057	2374.000412544815	1
0	7060	2374.197651633434	2
0	7062	2374.89701627149	3
0	7063	2376.341839447955	2
0	7068	2377.676213145476	1
0	7076	2380.147998872541	2
0	7081	2382.773602506629	1
0	7086	2383.878901393109	0
0	7101	2385.973715037169	1
0	7102	2386.823395423824	0
0	7113	2390.062495017581	1
0	7114	2390.10483209307	0
0	7132	2396.620877507963	1
0	7135	2398.140994948265	0
0	7191	2423.141881701351	1
0	7193	2425.271097995929	2
0	7197	2426.016683053538	1
0	7203	2426.630905147438	2
0	7204	2426.97150282638	1
0	7215	2430.880480705899	0
0	7226	2431.858421653021	1
0	7229	2432.571281272286	2
0	7231	2433.476992038586	3
0	7233	2433.50599353478	4
0	7235	2435.039337134923	5
0	7237	2435.269550642084	6
0	7239	2435.803116931276	7
0	7240	2436.018738270447	6
0	7246	2437.86131828224	5
0	7252	2439.41130519472	6
0	7255	2442.351767072201	5
0	7261	2443.841801798717	4
0	7267	2445.763918407809	5
0	7269	2447.775723757727	6
0	7272	2448.38241200513	5
0	7281	2448.972923221802	4
0	7288	2449.916092315251	3
0	7297	2458.248259534715	4
0	7299	2458.53654138265	5
0	7303	2459.025721039608	4
0	7308	2460.542270562741	3
0	7313	2461.143107001011	2
0	7321	2463.651919213744	1
0	7328	2464.920859047248	2
0	7330	2465.260316824733	3
0	7335	2469.911235992605	2
0	7340	2469.913957356308	1
0	7348	2473.307414848082	2
0	7349	2475.084889570104	1
0	7355	2476.365054909857	0
0	7392	2488.06134389792	1
0	7396	2493.744930174589	2
0	7397	2496.005372188783	1
0	7403	2496.389485006764	0
0	7418	2500.548834843187	1
0	7419	2501.304616502916	0
0	7427	2501.745739560347	1
0	7428	2502.744814461999	0
0	7437	2508.616971885235	1
0	7438	2508.743531760364	0
0	7447	2510.008625850313	1
0	7449	2510.80860855999	0
0	7475	2521.651284018162	1
0	7477	2521.805721550894	2
0	7480	2524.389812325465	1
0	7485	2525.521978764937	0
0	7491	2526.892991619316	1
0	7492	2527.59405489528	0
0	7498	2527.866276657971	1
0	7499	2528.255247466754	0
0	7503	2528.441993965152	1
0	7506	2529.225702413416	0
0	7553	2545.122033978127	1
0	7555	2546.826405750639	2
0	7561	2552.762177110702	3
0	7562	2555.119773813473	2
0	7568	2555.190214275386	3
0	7570	2556.005477273799	2
0	7576	2556.223690115887	3
0	7578	2558.216916721935	2
0	7583	2558.938011495475	1
0	7591	2560.257016074753	0
0	7599	2561.884639905458	1
0	7602	2562.469705687759	2
0	7603	2563.069330369315	1
0	7609	2564.220281554039	0
0	7634	2569.903960931025	1
0	7637	2570.421918593151	0
0	7669	2582.731811448437	1
0	7679	2585.162503058657	2
0	7680	2586.316922816754	1
0	7688	2587.515816943237	0
0	7702	2592.837554500734	1
0	7706	2594.648319924022	0
0	7721	2599.999097321738	1
0	7730	2611.336723873006	0
0	7749	2619.958120150333	1
0	7751	2621.359539657922	2
0	7755	2624.705622980048	3
0	7757	2627.189367551176	4
0	7763	2630.575170784929	5
0	7764	2632.392675153954	4
0	7772	2634.743167664653	5
0	7773	2636.326030583819	4
0	7779	2638.914630433443	3
0	7784	2639.077563688916	2
0	7793	2642.312605605905	1
0	7798	2643.620152105701	0
0	7837	2649.278442610767	1
0	7842	2655.440653411765	0
0	7855	2657.173294181982	1
0	7857	2660.514465262203	0
0	7877	2666.461075595979	1
0	7878	2667.26483500215	0
0	7884	2668.387536200833	1
0	7886	2668.98735215522	2
0	7887	2669.19291600651	1
0	7893	2670.794988185821	2
0	7895	2670.893927104808	3
0	7896	2671.561319379489	2
0	7902	2672.601303619757	1
0	7907	2673.444093399467	0
0	7911	2673.632402014935	1
0	7916	2674.866707010104	0
0	7933	2680.16454833572	1
0	7934	2681.159150099918	0
0	7948	2687.275826090225	1
0	7954	2689.768528031791	2
0	7955	2693.782976924287	1
0	7960	2694.129700286825	0
0	7966	2695.022995046921	1
0	7968	2696.136729828645	2
0	7969	2696.211946496452	1
0	7974	2696.808135427059	0
0	7986	2702.104878791908	1
0	7987	2703.181121082066	0
0	8006	2711.32164158222	1
0	8008	2711.963550022804	2
0	8013	2713.304872066241	3
0	8014	2713.49563648044	2
0	8020	2713.644233811788	3
0	8022	2713.997168525002	4
0	8024	2714.056596406018	5
0	8025	2714.451230689383	4
0	8034	2719.154998744041	5
0	8036	2720.029782504357	6
0	8040	2721.305592271976	7
0	8041	2721.773451670354	6
0	8047	2724.022481123338	5
0	8054	2726.181918566212	6
0	8055	2729.59082509027	5
0	8060	2730.117025471179	4
0	8065	2730.199548244227	3
0	8071	2730.263123042902	4
0	8074	2731.460568659414	5
0	8075	2731.506026378914	4
0	8083	2733.040379585479	5
0	8092	2736.598173431731	4
0	8100	2739.269309457215	3
0	8106	2741.461561742476	2
0	8111	2741.544470758978	1
0	8116	2746.000599821428	0
0	8125	2750.216386844429	1
0	8127	2750.561143683392	2
0	8129	2753.718989328423	1
0	8134	2754.350291642065	0
0	8152	2757.403376980193	1
0	8155	2760.909995518697	0
0	8161	2761.561036053453	1
0	8165	2762.254364033275	0
0	8171	2762.478559583884	1
0	8172	2762.966042634652	0
0	8209	2776.140884871417	1
0	8214	2782.002594250237	2
0	8216	2783.621223371262	3
0	8217	2784.031411000361	2
0	8224	2784.887251899665	3
0	8227	2786.700704821786	4
0	8228	2787.348412491972	3
0	8238	2789.735348412839	4
0	8242	2793.939458949093	5
0	8243	2796.063544476419	4
0	8252	2797.728904650863	5
0	8253	2798.663649757433	4
0	8259	2802.643245091496	3
0	8270	2804.164678098173	4
0	8276	2810.864643317489	3
0	8281	2811.058047625456	2
0	8287	2811.195348133771	3
0	8290	2816.716152751444	2
0	8295	2817.137352492785	1
0	8300	2818.462694698739	0
0	8307	2819.101619199537	1
0	8308	2820.012716830041	0
0	8321	2821.96045327394	1
0	8324	2822.734869645534	0
0	8350	2827.023805099969	1
0	8356	2830.206837855084	0
0	8362	2830.404931128629	1
0	8365	2831.40769215374	0
0	8374	2835.263945556035	1
0	8375	2835.421624868119	0
0	8399	2841.528906600598	1
0	8401	2844.892084346831	2
0	8404	2849.477142084516	1
0	8410	2850.212894978903	0
0	8417	2850.755139083854	1
0	8418	2852.698424122412	0
0	8435	2854.785033273595	1
0	8436	2854.794469126149	0
0	8462	2863.02711011463	1
0	8465	2866.209886762257	0
0	8477	2872.949934199869	1
0	8478	2874.843779324605	0
0	8486	2876.139509036442	1
0	8488	2876.913309921477	2
0	8489	2877.923567218606	1
0	8494	2878.163174417623	0
0	8503	2879.456098175255	1
0	8504	2879.838815713943	0
0	8524	2885.705203759568	1
0	8527	2888.249644517544	0
0	8533	2888.408380412943	1
0	8537	2889.191723188136	0
0	8556	2893.189666799078	1
0	8557	2893.519001022514	0
0	8584	2899.320706358975	1
0	8589	2902.727775284964	0
0	8596	2905.644655895833	1
0	8597	2905.915616750279	0
0	8606	2908.251028200557	1
0	8611	2911.487722458838	0
0	8624	2917.544135724131	1
0	8627	2923.121869641491	0
0	8637	2925.5148245248	1
0	8638	2926.114336190205	0
0	8644	2926.288549678446	1
0	8646	2926.330134141437	2
0	8651	2928.196278295342	1
0	8659	2931.309555700305	0
0	8665	2932.007278149351	1
0	8667	2932.339418653138	2
0	8672	2936.430440170746	3
0	8673	2937.259506016168	2
0	8680	2939.627855605195	3
0	8681	2940.340679170695	2
0	8687	2941.334722104716	3
0	8688	2941.587931755902	2
0	8695	2943.448495698398	3
0	8697	2945.906470800051	4
0	8699	2947.173096044703	3
0	8704	2947.242167188068	2
0	8709	2948.180724950272	1
0	8716	2949.77623731037	0
0	8727	2959.051618755303	1
0	8728	2960.498195874456	0
0	8741	2963.262700686513	1
0	8744	2966.078174736716	0
0	8763	2971.952761835553	1
0	8767	2972.589941520243	2
0	8768	2974.225950559576	1
0	8773	2974.991418683883	0
0	8791	2979.497616706965	1
0	8796	2981.464787329662	0
0	8803	2982.625092260534	1
0	8805	2983.160013140361	2
0	8806	2984.045107027087	1
0	8812	2984.345808029521	0
0	8820	2984.843769652297	1
0	8822	2986.020502969825	2
0	8824	2986.336466246517	3
0	8825	2988.481032515031	2
0	8833	2993.546395514987	1
0	8838	2993.668014592022	0
0	8865	2999.705740568123	1
0	8869	3003.66334900229	2
0	8871	3006.24495127469	3
0	8872	3006.830940381706	2
0	8878	3007.075563167291	1
0	8884	3007.541086786823	0
0	8894	3009.402226543742	1
0	8898	3012.920531492846	2
0	8902	3013.023259758777	3
0	8904	3013.863018897495	4
0	8905	3013.869158036462	3
0	8911	3014.673362860574	4
0	8914	3016.938581434587	3
0	8923	3017.995973346574	2
0	8930	3018.805696025995	3
0	8931	3019.33131772397	2
0	8937	3019.413503114605	3
0	8942	3020.741364654412	4
0	8946	3022.633398968594	5
0	8947	3024.526085785857	4
0	8952	3025.075788953822	3
0	8957	3026.25650962453	2
0	8963	3026.497797038695	3
0	8967	3028.354380460016	4
0	8974	3034.412844275398	5
0	8976	3036.644302710362	6
0	8980	3037.896401787366	7
0	8981	3038.479209978565	6
0	8988	3039.900428619846	5
0	8994	3040.766044905277	6
0	8995	3040.985738684329	5
0	9001	3042.417392236083	4
0	9007	3042.91481973998	5
0	9009	3043.016608411526	6
0	9012	3045.370822062365	5
0	9018	3050.397293573101	6
0	9022	3052.981374188042	5
0	9027	3053.204758786757	4
0	9031	3054.012734247286	5
0	9035	3055.693305190584	4
0	9043	3057.14589196206	5
0	9044	3057.277993000997	4
0	9049	3059.180377218802	3
0	9056	3060.574267628353	2
0	9066	3066.485363474395	3
0	9069	3074.080223927514	2
0	9074	3075.427783011873	1
0	9080	3077.978505078949	0
0	9086	3078.00227779973	1
0	9092	3082.008759273803	0
0	9108	3083.709881737067	1
0	9112	3084.746669198335	0
0	9143	3090.499153853918	1
0	9144	3090.787457180657	0
0	9190	3107.987525985712	1
0	9195	3110.433130405704	0
0	9202	3110.684591398513	1
0	9204	3111.83976977448	2
0	9205	3115.573709161155	1
0	9210	3115.5937456345	0
0	9226	3116.977980810673	1
0	9228	3117.618495365233	2
0	9237	3121.584974768107	3
0	9238	3123.512086395156	2
0	9243	3123.664088100143	1
0	9251	3125.70187551344	2
0	9256	3128.941433321148	1
0	9262	3129.512089891715	2
0	9264	3129.552238503842	3
0	9266	3130.609437006995	4
0	9267	3131.304916811292	3
0	9276	3133.193445997878	2
0	9281	3133.997697068984	1
0	9287	3134.070719106616	0
0	9300	3135.122319965071	1
0	9301	3136.263544914673	0
0	9362	3157.094607501018	1
0	9365	3161.31799216416	0
0	9385	3166.040941478003	1
0	9387	3167.889667736618	2
0	9393	3169.82749913531	3
0	9394	3170.118723371368	2
0	9401	3171.101553720363	1
0	9413	3176.310485863279	0
0	9423	3178.955810313679	1
0	9427	3180.102725039871	0
0	9436	3181.023060486924	1
0	9438	3181.131280904457	2
0	9445	3185.525196235123	1
0	9455	3186.219137811708	0
0	9462	3188.336166658673	1
0	9465	3190.30746687513	2
0	9466	3191.72621154414	1
0	9472	3191.759607549981	2
0	9473	3192.387692625584	1
0	9479	3193.479720640528	0
0	9490	3194.490732858445	1
0	9491	3195.053511058383	0
0	9517	3200.718852623572	1
0	9518	3201.959086558474	0
0	9528	3204.832173516637	1
0	9529	3206.394212581305	0
0	9544	3210.914836106066	1
0	9545	3211.41556051342	0
0	9566	3217.141845668927	1
0	9568	3217.711268067754	2
0	9571	3219.6303451404	1
0	9577	3223.027070236266	2
0	9579	3225.985416360157	1
0	9584	3226.204975347069	0
0	9596	3228.286048613814	1
0	9598	3229.326696938914	2
0	9599	3231.675864102995	1
0	9606	3232.136509112537	2
0	9608	3234.952654758094	1
0	9613	3235.722902945982	0
0	9626	3239.758451909721	1
0	9627	3242.086365161935	0
0	9645	3245.835964678385	1
0	9649	3246.396988521294	2
0	9652	3247.142088856298	3
0	9653	3247.647335460256	2
0	9658	3248.105063166947	1
0	9664	3248.430443844649	2
0	9668	3253.253883077054	1
0	9676	3254.406536933799	2
0	9677	3254.994853236688	1
0	9683	3255.153547711853	2
0	9684	3256.002585515889	1
0	9691	3258.649117841624	0
0	9708	3259.551878923611	1
0	9710	3263.225313805644	2
0	9712	3263.898695158916	3
0	9716	3265.805723257774	4
0	9718	3266.081367006707	5
0	9720	3266.223394799285	6
0	9724	3266.797891303145	7
0	9725	3267.550299590678	6
0	9731	3268.991637191881	7
0	9733	3269.198524079051	8
0	9735	3269.659037214025	7
0	9742	3270.168347655458	8
0	9744	3270.381254437927	9
0	9749	3271.523521491382	8
0	9754	3272.478870020445	7
0	9760	3273.276678019176	8
0	9762	3273.289739922992	9
0	9764	3274.372778185367	8
0	9773	3279.288015175133	9
0	9776	3282.104470695586	8
0	9782	3282.716618686033	7
0	9792	3286.785136544678	6
0	9797	3286.865408151025	5
0	9804	3290.99635108052	4
0	9811	3292.757903922263	3
0	9816	3293.745226705176	2
0	9824	3296.299484786003	3
0	9825	3296.413208347856	2
0	9832	3301.425091806523	1
0	9837	3303.209357676581	0
0	9864	3307.706493020547	1
0	9866	3308.434523286348	2
0	9868	3308.877690287652	3
0	9870	3309.733166687859	4
0	9874	3313.019835710817	5
0	9877	3314.451371254908	4
0	9882	3314.763784438109	3
0	9890	3315.555433939082	2
0	9897	3316.858529120207	3
0	9898	3317.226914247946	2
0	9903	3317.578837181609	1
0	9910	3319.228781286783	2
0	9914	3322.641290505662	3
0	9915	3322.642157089146	2
0	9921	3323.313843705923	1
0	9926	3325.254300761541	0
0	9944	3331.876444501153	1
0	9946	3334.124279366873	2
0	9947	3334.846666795675	1
0	9955	3336.414839652078	0
0	9961	3336.890970785205	1
0	9968	3342.077609054792	2
0	9969	3342.569174332473	1
0	9974	3343.149136529745	0
0	10012	3359.56033046337	1
0	10015	3361.651600465901	0
0	10024	3361.90805093754	1
0	10028	3363.533474757897	0
0	10047	3368.388571134136	1
0	10048	3369.00907720679	0
0	10054	3369.542763027827	1
0	10056	3371.197735150777	2
0	10058	3372.000723303844	3
0	10060	3372.366604577322	4
0	10062	3373.5044523837	5
0	10065	3376.24577272798	6
0	10066	3377.294037432376	5
0	10071	3377.380527764326	4
0	10080	3380.863838742637	3
0	10085	3381.19262643024	2
0	10092	3382.959551904226	1
0	10099	3384.39793148168	0
0	10105	3386.004200334552	1
0	10106	3387.330450559842	0
0	10123	3389.888083514407	1
0	10124	3390.124342457768	0
0	10128	3390.346872439107	1
0	10136	3393.978535678284	0
0	10142	3394.273312224653	1
0	10146	3395.697906173504	2
0	10147	3397.30495411641	1
0	10153	3399.928402637501	0
0	10201	3415.643980363017	1
0	10202	3415.975808682193	0
0	10217	3420.503883323433	1
0	10219	3420.9180219881	2
0	10223	3422.091536923466	1
0	10228	3422.647479754348	0
0	10245	3429.704248431118	1
0	10249	3434.512096524344	2
0	10250	3435.04342935578	1
0	10257	3437.317450711519	0
0	10273	3441.244182923639	1
0	10277	3442.478657386911	2
0	10281	3445.551208818875	3
0	10283	3446.00104699564	4
0	10284	3446.977230140282	3
0	10292	3449.286747615834	2
0	10297	3450.027620777026	1
0	10303	3450.45054821364	2
0	10304	3450.548132823489	1
0	10314	3454.707365300433	0
0	10320	3454.726039626684	1
0	10321	3455.915855628908	0
0	10327	3456.049322993716	1
0	10332	3457.747478614552	2
0	10333	3458.082997232185	1
0	10343	3461.373985389128	0
0	10353	3463.362473155651	1
0	10355	3465.446030766334	2
0	10357	3466.820981691	3
0	10369	3474.931449555774	4
0	10372	3484.831728974215	3
0	10377	3485.154530905792	2
0	10382	3485.289709614339	1
0	10392	3492.455663492343	0
0	10399	3495.211592915573	1
0	10400	3496.027755946622	0
0	10407	3496.588575265089	1
0	10411	3499.296935803194	2
0	10413	3499.394493308497	3
0	10414	3499.965866157205	2
0	10420	3500.796426459465	3
0	10421	3501.341618508342	2
0	10432	3506.575937521814	1
0	10440	3507.436918389226	0
0	10456	3511.301274480474	1
0	10459	3512.382852475008	2
0	10460	3512.435457004712	1
0	10465	3514.277122550557	0
0	10478	3520.24687521866	1
0	10479	3521.097813771256	0
0	10486	3521.660026833249	1
0	10487	3522.529295617393	0
0	10501	3525.914737848542	1
0	10504	3531.22574386807	0
0	10516	3536.035317325713	1
0	10518	3536.49962153103	2
0	10520	3538.702034337258	3
0	10524	3539.927313308242	4
0	10527	3541.780057640736	5
0	10528	3543.557656119755	4
0	10534	3544.556805835032	3
0	10540	3545.85767000887	2
0	10546	3546.026516830103	3
0	10548	3549.325953327769	4
0	10553	3549.737513560054	5
0	10554	3550.844505148657	4
0	10561	3551.537579672272	5
0	10565	3553.116507682916	6
0	10567	3554.016286613628	7
0	10569	3554.489756633028	8
0	10577	3559.276169036795	9
0	10579	3559.618065028633	10
0	10582	3561.42419483204	9
0	10587	3561.638083386626	8
0	10592	3561.656800272451	7
0	10600	3562.462892536584	6
0	10607	3567.014855133163	5
0	10613	3567.496498664326	6
0	10619	3568.849749674482	5
0	10627	3575.375011882456	4
0	10637	3575.917512202014	5
0	10638	3576.13582461622	4
0	10650	3579.564340171323	3
0	10658	3581.546715212225	4
0	10659	3581.855564174052	3
0	10664	3581.990856763406	2
0	10671	3585.806214188902	3
0	10677	3588.201454318853	4
0	10679	3588.517048547963	5
0	10683	3589.638002780751	6
0	10688	3592.093831369783	5
0	10693	3592.418226863164	4
0	10699	3592.941739373987	5
0	10702	3594.573271537744	6
0	10703	3595.114087246759	5
0	10712	3598.895417299692	4
0	10717	3598.934358506096	3
0	10723	3599.849716591881	2
0	10729	3601.806398558862	1
0	10736	3602.661770841267	2
0	10739	3603.579584792046	3
0	10741	3604.133555923922	4
0	10744	3604.697109436255	3
0	10749	3606.542517735313	2
0	10754	3606.693842437102	1
0	10759	3606.794733634799	0
0	10765	3607.201833594626	1
0	10769	3609.119608749002	2
0	10771	3610.742842214799	1
0	10776	3611.025263005081	0
0	10780	3611.543704411146	1
0	10782	3611.978298016953	2
0	10786	3619.363479799598	1
0	10795	3622.388486376895	2
0	10797	3624.366332114276	1
0	10803	3625.024734763387	2
0	10805	3628.868606876195	3
0	10808	3629.886509114706	2
0	10814	3630.897105197648	3
0	10819	3632.314044500295	2
0	10824	3633.288939887594	1
0	10832	3638.66981246732	0
0	10846	3641.609005453883	1
0	10853	3644.189722719337	2
0	10854	3646.377655148597	1
0	10864	3647.919083470408	2
0	10868	3648.92709893726	3
0	10869	3651.344092368043	2
0	10875	3652.068637125869	1
0	10883	3653.965423150534	0
0	10899	3657.865380843167	1
0	10901	3660.459798802995	0
0	10909	3661.082576980064	1
0	10912	3664.341834447826	0
0	10918	3664.785851646122	1
0	10920	3665.154566286739	2
0	10921	3665.57083400979	1
0	10928	3666.271239886656	0
0	10935	3667.245434059072	1
0	10936	3667.401449865366	0
0	10964	3673.339311294212	1
0	10968	3674.064479144838	2
0	10970	3674.657746948088	3
0	10972	3675.31458789641	4
0	10975	3678.632000320235	3
0	10982	3681.607376467951	4
0	10984	3681.89710340179	5
0	10986	3684.554618954806	6
0	10988	3684.618774267696	7
0	10989	3685.032676863944	6
0	10994	3685.142070797791	5
0	10999	3685.165266021389	4
0	11006	3687.532058820197	5
0	11010	3688.167153418195	6
0	11013	3690.074609726806	5
0	11018	3691.503937233234	4
0	11023	3691.593203763253	3
0	11030	3692.787268266	4
0	11031	3693.486205227231	3
0	11038	3695.118330438088	2
0	11043	3696.139400013927	1
0	11048	3696.596895323012	0
0	11072	3701.742635553207	1
0	11078	3705.915543405657	2
0	11080	3706.658984507959	3
0	11083	3706.886210309333	4
0	11084	3707.477043907759	3
0	11093	3709.066000477666	4
0	11097	3710.55182294958	5
0	11098	3712.560086869438	4
0	11108	3715.167768602333	3
0	11116	3716.575553405957	4
0	11117	3717.218862038085	3
0	11122	3717.30801559857	2
0	11128	3717.979906585881	1
0	11134	3718.474511639916	2
0	11136	3718.77116774915	1
0	11144	3718.980470618634	2
0	11149	3722.656783580907	1
0	11161	3723.333873474561	2
0	11164	3725.267544832137	1
0	11172	3727.167426414303	2
0	11176	3729.080264921312	1
0	11181	3729.098333425655	0
0	11205	3730.68290138315	1
0	11216	3734.041223032159	2
0	11217	3734.093792725281	1
0	11223	3734.561501931618	2
0	11225	3738.838591020125	3
0	11226	3740.78260208445	2
0	11232	3741.430872332439	3
0	11233	3741.487486558907	2
0	11243	3744.214928779666	3
0	11244	3744.611630620124	2
0	11250	3744.94086512985	3
0	11253	3745.631127788017	2
0	11258	3745.937193040174	1
0	11266	3747.587858520497	2
0	11268	3749.381483118349	3
0	11273	3753.571750660967	2
0	11280	3753.863529205067	3
0	11283	3755.25105495637	2
0	11288	3755.598756019777	1
0	11294	3762.604372233767	2
0	11296	3763.731826047664	1
0	11302	3763.979727677768	2
0	11304	3764.258611314321	3
0	11307	3765.928124813525	2
0	11313	3766.769232817639	3
0	11314	3766.816528443921	2
0	11322	3770.522395730141	1
0	11327	3771.54635275646	0
0	11365	3785.91019214327	1
0	11366	3786.003149479323	0
0	11378	3789.088891830056	1
0	11380	3790.325226220193	2
0	11382	3795.356693089813	3
0	11383	3795.434653541543	2
0	11389	3796.341599413115	3
0	11391	3797.39238532873	2
0	11397	3798.518679316348	1
0	11402	3798.643167937131	0
0	11428	3803.929979313722	1
0	11432	3805.541553925028	2
0	11433	3805.947675475707	1
0	11438	3806.841753055215	0
0	11455	3810.331457413077	1
0	11457	3810.843655090319	0
0	11469	3813.412545964976	1
0	11472	3817.827362807148	0
0	11481	3818.711548006834	1
0	11489	3825.159446215885	0
0	11495	3826.352723050376	1
0	11504	3829.192346705064	2
0	11507	3830.044573508578	3
0	11511	3831.406463132779	4
0	11513	3833.035244432913	5
0	11514	3833.695461244285	4
0	11519	3833.781967156846	3
0	11526	3834.540273350583	2
0	11532	3835.299265546813	1
0	11538	3836.218085402356	0
0	11556	3837.44924336973	1
0	11557	3839.048709429883	0
0	11564	3841.364095000925	1
0	11565	3841.669819849006	0
0	11576	3841.810513129345	1
0	11577	3842.605387892579	0
0	11583	3846.590206281203	1
0	11595	3854.554904218685	2
0	11598	3855.871306206159	1
0	11604	3857.220898684048	2
0	11605	3857.39814744258	1
0	11611	3858.257941731763	2
0	11612	3858.340441623286	1
0	11618	3860.411280220756	2
0	11621	3862.313238591019	1
0	11628	3863.323293720034	2
0	11630	3863.464608095212	3
0	11632	3865.910083441825	2
0	11637	3866.065339869093	1
0	11642	3866.749694019408	0
0	11668	3872.314826764941	1
0	11669	3872.416378735208	0
0	11684	3874.289789629534	1
0	11688	3875.939514845289	2
0	11692	3877.707506223655	3
0	11696	3880.001373724593	4
0	11697	3880.84697577882	3
0	11702	3880.920931033344	2
0	11710	3883.150290472449	3
0	11711	3883.702051608969	2
0	11716	3883.73585358181	1
0	11722	3884.518211142469	2
0	11725	3885.106744358893	1
0	11734	3889.293308832799	0
0	11746	3894.30777270083	1
0	11747	3895.064134602823	0
0	11769	3911.304401341511	1
0	11771	3911.894279361179	2
0	11773	3911.930335246959	3
0	11774	3914.412772986137	2
0	11779	3915.145025113679	1
0	11792	3919.072320412207	0
0	11799	3920.815525056138	1
0	11801	3921.702475505274	2
0	11802	3922.964187092143	1
0	11808	3923.598525922243	0
0	11838	3930.008123148936	1
0	11839	3930.528837706968	0
0	11870	3937.732333708453	1
0	11871	3937.887093271813	0
0	11881	3945.065621895456	1
0	11884	3946.014001333797	0
0	11904	3955.61305161304	1
0	11907	3958.500287421743	0
0	11914	3959.306191210307	1
0	11917	3960.888950093293	0
0	11926	3963.015589109108	1
0	11929	3965.248475523036	0
0	11960	3975.291320429995	1
0	11962	3976.844575096423	2
0	11965	3977.666346033143	1
0	11973	3977.996802228364	2
0	11976	3979.226400596005	1
0	11982	3979.452848236063	2
0	11983	3979.85318729786	1
0	11989	3980.34871963499	2
0	11993	3982.035811253741	3
0	11998	3985.026395585037	2
0	12004	3985.042966027562	3
0	12006	3985.296468246729	4
0	12009	3986.638353563102	5
0	12010	3988.547025021845	4
0	12016	3989.870433383822	5
0	12018	3992.888541777236	6
0	12020	3992.998593490028	7
0	12022	3994.164712672068	8
0	12023	3997.076840790988	7
0	12028	3997.106321959079	6
0	12035	4000.215554357674	5
0	12042	4004.853114570555	4
0	12048	4005.556850019463	5
0	12049	4006.802047581297	4
0	12058	4011.471498022183	3
0	12063	4013.380394583432	2
0	12072	4015.786061328058	1
0	12078	4017.220720543449	0
0	12086	4020.009924709607	1
0	12088	4021.162330642022	2
0	12091	4022.348704672039	3
0	12092	4022.702874553575	2
0	12098	4023.672186696911	3
0	12099	4024.681107188376	2
0	12105	4026.623365574844	3
0	12109	4027.677319594101	2
0	12115	4028.717845537785	1
0	12121	4029.381496929176	2
0	12122	4029.783813467698	1
0	12129	4029.839603680051	2
0	12131	4030.861885037085	1
0	12137	4032.266756692518	2
0	12139	4034.300193939844	3
0	12141	4034.913776060209	4
0	12143	4035.017593461963	5
0	12145	4035.447748939288	6
0	12148	4041.961880625759	7
0	12150	4042.320125847581	8
0	12151	4042.718413175181	7
0	12163	4045.768025485556	8
0	12165	4046.134674400831	9
0	12166	4047.324338320532	8
0	12171	4047.326783515641	7
0	12179	4048.620226214067	8
0	12182	4048.940240063955	7
0	12187	4052.768840613511	6
0	12192	4052.909470704632	5
0	12199	4054.956835809441	6
0	12200	4056.598787340563	5
0	12206	4056.843251960484	6
0	12209	4058.805932041927	5
0	12219	4062.940542346441	6
0	12222	4063.92785878052	5
0	12231	4066.385990214141	6
0	12233	4066.834944211407	7
0	12235	4066.984202528303	8
0	12237	4068.115054165209	7
0	12243	4068.223024330835	8
0	12245	4070.324032311427	7
0	12250	4071.857776558313	6
0	12256	4074.561942049281	5
0	12261	4075.169859232943	4
0	12269	4077.255491938461	5
0	12272	4079.927197618962	4
0	12276	4082.824752125016	5
0	12280	4084.62002294459	6
0	12284	4087.511535153073	7
0	12290	4088.863450070612	6
0	12296	4090.574419782608	7
0	12298	4090.647926447322	8
0	12300	4092.183862873075	9
0	12301	4094.169570004924	8
0	12306	4094.570234251391	7
0	12313	4094.754856158912	8
0	12316	4095.311248181761	9
0	12318	4095.720290052463	10
0	12326	4099.490466740134	9
0	12333	4099.743514965675	8
0	12340	4103.682972652965	7
0	12347	4106.407923143415	8
0	12349	4109.574902040559	9
0	12351	4109.611132787636	10
0	12352	4111.211943073819	9
0	12357	4111.646509589486	8
0	12363	4112.15048333481	9
0	12364	4112.516461345686	8
0	12372	4114.518321166413	9
0	12373	4114.558145877489	8
0	12379	4115.55883057352	9
0	12382	4116.987133976024	10
0	12385	4120.105839261599	11
0	12387	4120.469970514426	12
0	12389	4125.187771633325	13
0	12390	4125.30043190588	12
0	12396	4128.339252205309	11
0	12401	4128.589244147359	10
0	12406	4128.944456652345	9
0	12411	4130.021461293523	8
0	12417	4132.855059150735	9
0	12423	4136.661476581423	10
0	12426	4141.535925380301	9
0	12435	4144.389885649386	8
0	12440	4145.0836137492	7
0	12447	4145.467438198912	6
0	12452	4145.981249825949	5
0	12458	4148.111609327227	4
0	12463	4148.156786530187	3
0	12469	4148.464974848593	4
0	12473	4149.663941282203	3
0	12478	4150.995851218274	2
0	12487	4151.996755953455	1
0	12495	4154.1746987365	2
0	12497	4155.137465153443	3
0	12498	4156.029745725067	2
0	12506	4159.430755634312	3
0	12508	4159.906634473389	4
0	12510	4160.148191088188	5
0	12512	4160.892430273469	6
0	12513	4160.905282650364	5
0	12519	4161.306588204117	6
0	12520	4163.295981916263	5
0	12526	4166.61381663345	4
0	12532	4166.615887033703	5
0	12534	4167.153703338948	6
0	12536	4167.44703945204	7
0	12538	4168.621548048965	8
0	12540	4170.9920958247	9
0	12541	4172.78964507017	8
0	12551	4179.0942409107	9
0	12556	4186.172190834532	8
0	12560	4187.678869431565	9
0	12565	4189.615479485852	8
0	12572	4191.047905480174	9
0	12574	4191.134112957993	10
0	12575	4191.189740140825	9
0	12584	4195.603002189373	10
0	12585	4195.671650555834	9
0	12592	4196.748698732939	10
0	12596	4201.045769727175	9
0	12602	4203.837108609116	8
0	12607	4203.886001779559	7
0	12612	4205.164887564089	6
0	12617	4205.842894195789	5
0	12622	4209.031751501306	4
0	12631	4212.798826295197	3
0	12637	4214.111943778205	4
0	12640	4215.405993619423	3
0	12646	4216.222502207448	4
0	12648	4217.525106316025	5
0	12653	4221.091963750858	6
0	12654	4222.004539651216	5
0	12660	4224.727305878822	6
0	12662	4224.826584814151	7
0	12664	4225.043847143255	8
0	12666	4225.413826252527	9
0	12667	4225.705025645753	8
0	12673	4227.479616424263	9
0	12675	4229.605440082137	8
0	12681	4229.789422585536	7
0	12686	4230.297738892042	6
0	12691	4231.821326702728	5
0	12695	4232.145264230314	6
0	12700	4232.807768467638	7
0	12703	4234.246671780811	8
0	12705	4236.244213627302	9
0	12707	4237.633605289463	10
0	12708	4237.848000586306	9
0	12714	4238.500575455377	8
0	12720	4238.975003434873	7
0	12725	4239.266151688607	6
0	12736	4242.186899091691	5
0	12743	4244.954073376814	4
0	12752	4252.545840147807	5
0	12753	4255.738747512502	4
0	12759	4257.040261800168	5
0	12760	4257.67870218248	4
0	12766	4260.498792955616	5
0	12770	4260.913862454373	6
0	12772	4263.054023041553	7
0	12774	4263.58804568254	8
0	12775	4264.369982728917	7
0	12781	4265.636047388942	6
0	12788	4267.658851303274	5
0	12794	4271.257864477406	4
0	12800	4271.860557526458	3
0	12805	4271.970523974959	2
0	12811	4274.387132421772	3
0	12812	4276.329290582629	2
0	12816	4279.225420509769	3
0	12825	4282.644254613014	4
0	12826	4283.157097793837	3
0	12831	4283.637440940181	2
0	12836	4285.74204451581	1
0	12848	4290.528398918365	2
0	12849	4291.055627086296	1
0	12855	4294.485668595428	2
0	12857	4300.569970108099	3
0	12862	4301.885814302737	2
0	12867	4303.389138505114	1
0	12871	4303.541283027446	2
0	12875	4303.916803604669	3
0	12876	4304.615019435289	2
0	12885	4306.237594508764	1
0	12897	4310.648128860758	2
0	12898	4311.44945953985	1
0	12903	4314.499140393389	0
0	12909	4317.703560045872	1
0	12915	4321.354298407113	0
0	12944	4328.843936831626	1
0	12945	4331.108593144444	0
0	12982	4344.800578186221	1
0	12985	4351.441666481004	2
0	12986	4353.23609342542	1
0	12994	4356.634067016783	2
0	12995	4356.838269182373	1
0	13000	4357.257852155965	0
0	13007	4358.993253965658	1
0	13010	4361.128792152038	0
0	13027	4365.023081854011	1
0	13028	4365.49213848211	0
0	13034	4366.078962217981	1
0	13036	4369.779162715057	0
0	13051	4375.079886757787	1
0	13055	4379.470569206143	2
0	13056	4379.609017861415	1
0	13061	4380.519764839887	0
0	13071	4384.234053861984	1
0	13073	4386.562737566399	2
0	13074	4388.356356360851	1
0	13079	4388.690452615079	0
0	13093	4394.257678337701	1
0	13095	4394.351647532024	2
0	13097	4398.987734598813	3
0	13099	4401.142739680666	4
0	13100	4401.682363249396	3
0	13105	4402.564912932519	2
0	13111	4402.923099434234	3
0	13114	4406.354261040424	2
0	13122	4407.389823293818	3
0	13123	4408.414881609042	2
0	13128	4408.899819819348	1
0	13135	4409.056026969564	0
0	13145	4411.831204779765	1
0	13147	4414.278012755006	0
0	13159	4418.845374950081	1
0	13161	4422.492527102525	2
0	13163	4422.720942533374	3
0	13167	4424.071946035462	4
0	13168	4424.173109331343	3
0	13174	4425.955354928918	2
0	13179	4426.907628011609	1
0	13184	4427.217230746205	0
0	13191	4427.985481167629	1
0	13193	4428.534478809225	2
0	13195	4429.888259052559	1
0	13200	4431.143778453862	0
0	13212	4433.420734808071	1
0	13213	4433.679203507635	0
0	13224	4434.99681040722	1
0	13225	4435.011462687085	0
0	13229	4437.910460967985	1
0	13235	4446.616786969996	0
0	13253	4450.699449678403	1
0	13256	4452.924483059648	0
0	13262	4453.025334362724	1
0	13265	4453.675193356285	0
0	13281	4455.598417477012	1
0	13282	4456.956648516044	0
0	13293	4457.950165971063	1
0	13295	4458.311851632915	2
0	13298	4461.237968306984	1
0	13305	4464.17565259793	0
0	13311	4465.117165970125	1
0	13323	4476.096870405221	2
0	13325	4476.155425869118	3
0	13327	4476.546677940793	4
0	13329	4478.054840651107	5
0	13331	4479.561648711052	6
0	13332	4483.056628206599	5
0	13337	4483.495430361215	4
0	13346	4486.277897924304	3
0	13352	4489.313749636842	2
0	13358	4490.247579837572	1
0	13364	4490.585140218074	0
0	13385	4493.249037520622	1
0	13386	4493.673380498486	0
0	13409	4512.237844417021	1
0	13413	4513.318118264564	2
0	13414	4513.498738476202	1
0	13420	4514.92530975547	0
0	13443	4523.732903195757	1
0	13444	4526.186276762937	0
0	13451	4526.707241459817	1
0	13452	4531.514760938716	0
0	13459	4536.202081312422	1
0	13460	4536.233110261047	0
0	13466	4537.008347586079	1
0	13469	4538.571958901291	0
0	13485	4543.786125033218	1
0	13486	4545.183099040094	0
0	13516	4553.582876991498	1
0	13518	4553.691860073279	2
0	13520	4554.269055203137	3
0	13522	4555.609833347401	4
0	13525	4557.915196144446	3
0	13531	4558.429472594361	2
0	13536	4558.752052482755	1
0	13541	4559.526572885968	0
0	13556	4566.59794843111	1
0	13559	4567.985810110212	0
0	13570	4569.483132736391	1
0	13571	4569.742844543598	0
0	13593	4579.01256306035	1
0	13595	4580.495979276191	2
0	13596	4582.906855514267	1
0	13603	4585.085282936787	2
0	13604	4586.04928890596	1
0	13611	4586.879032585996	0
0	13624	4589.142885482757	1
0	13626	4589.363498133347	0
0	13637	4590.950467088586	1
0	13638	4591.628030824159	0
0	13653	4593.882459229929	1
0	13657	4594.011631157043	2
0	13658	4594.417706848681	1
0	13665	4595.833344909699	2
0	13666	4596.609560118787	1
0	13673	4597.066686591644	2
0	13676	4598.517198795033	3
0	13679	4600.143101914993	2
0	13686	4601.352347868445	1
0	13692	4601.609447715594	2
0	13693	4601.774667965405	1
0	13698	4603.842245984299	0
0	13719	4614.253811318311	1
0	13720	4614.385564785514	0
0	13738	4617.029242133331	1
0	13742	4618.705203924157	0
0	13757	4621.576383835133	1
0	13758	4622.308678184314	0
0	13764	4622.92803691088	1
0	13765	4623.11373967696	0
0	13799	4634.555087803377	1
0	13800	4634.586578647209	0
0	13807	4636.901292764262	1
0	13808	4639.688972292409	0
0	13858	4654.156335344959	1
0	13864	4659.039116545097	2
0	13865	4659.444193106578	1
0	13875	4663.190851036797	0
0	13898	4665.590923556281	1
0	13899	4665.873963758314	0
0	13912	4671.453728709164	1
0	13915	4672.410284721369	0
0	13935	4678.512619059045	1
0	13938	4679.434750376596	0
0	13949	4680.164130919252	1
0	13951	4680.802758575436	2
0	13952	4681.580137930982	1
0	13958	4682.492902442723	2
0	13959	4682.957946479817	1
0	13965	4683.61907996392	0
0	13983	4686.64660817959	1
0	13985	4687.418670419163	2
0	13988	4689.872511786478	3
0	13991	4690.781192536208	2
0	13999	4692.07042688664	3
0	14001	4694.371845084074	2
0	14007	4695.219712373543	1
0	14012	4695.72777611171	0
0	14023	4697.21031026242	1
0	14025	4697.698445465685	2
0	14028	4699.563565030016	1
0	14036	4700.216646303001	2
0	14040	4701.907449318278	3
0	14041	4702.099643932275	2
0	14048	4704.718235451244	3
0	14049	4705.053140428619	2
0	14058	4707.32378313974	1
0	14065	4710.899351137773	0
0	14090	4715.542810131709	1
0	14091	4716.097412663271	0
0	14097	4716.846202356991	1
0	14099	4717.243688512786	0
0	14108	4720.714455644328	1
0	14111	4720.797821093556	0
0	14139	4723.966523953211	1
0	14142	4724.404237002926	0
0	14151	4725.903779077458	1
0	14156	4728.092561445379	2
0	14157	4728.094174206207	1
0	14170	4734.152231632709	2
0	14172	4735.54735769355	3
0	14173	4735.958092726449	2
0	14179	4736.185227436477	3
0	14180	4736.538951837495	2
0	14187	4736.911066076378	3
0	14188	4737.159712576542	2
0	14199	4742.497865320389	3
0	14203	4743.90161962075	4
0	14204	4747.969364440413	3
0	14209	4748.060887533335	2
0	14215	4749.124170820646	1
0	14222	4750.051216630133	0
0	14230	4750.24254609758	1
0	14231	4752.406341633724	0
0	14237	4754.673187291178	1
0	14239	4754.717064645739	2
0	14240	4756.66913005708	1
0	14250	4769.008407103997	0
0	14256	4770.395198504041	1
0	14259	4774.051202473879	0
0	14265	4774.079607943059	1
0	14266	4775.059693155712	0
0	14280	4779.303333069711	1
0	14281	4779.771500369271	0
0	14296	4783.459737122003	1
0	14297	4784.123029553142	0
0	14309	4786.898920573247	1
0	14311	4789.303561100665	2
0	14312	4789.984097939234	1
0	14320	4792.187481522213	0
0	14349	4800.820075285256	1
0	14351	4801.629459257056	2
0	14352	4802.026174784423	1
0	14357	4803.079699486328	0
0	14393	4810.384207082008	1
0	14399	4812.766214867568	2
0	14404	4813.33745142451	1
0	14411	4814.510347803438	2
0	14412	4816.888727854259	1
0	14417	4816.967978365334	0
0	14424	4819.134956284329	1
0	14428	4819.433877455167	2
0	14430	4821.415062041316	1
0	14435	4821.490936178058	0
0	14471	4833.680139374053	1
0	14472	4834.306731205648	0
0	14482	4834.952936461729	1
0	14486	4836.459062671413	2
0	14487	4837.793388801822	1
0	14493	4840.541701030479	0
0	14503	4843.176338105782	1
0	14506	4843.836795848412	0
0	14514	4845.838385201135	1
0	14515	4846.247447963563	0
0	14537	4852.478961301249	1
0	14538	4852.789062129718	0
0	14567	4860.172917529566	1
0	14569	4860.420715566902	2
0	14570	4860.440419421042	1
0	14576	4860.914808793477	2
0	14580	4862.998758640857	1
0	14586	4864.962954188085	0
0	14602	4871.811274904396	1
0	14604	4872.12012291543	2
0	14605	4873.923628940856	1
0	14611	4874.048904078824	2
0	14615	4880.757687675558	1
0	14620	4882.209506713015	0
0	14626	4882.219988560781	1
0	14629	4883.204576683226	2
0	14631	4883.541392327481	3
0	14634	4884.606531352472	4
0	14635	4885.693650576803	3
0	14643	4886.615355641309	4
0	14645	4886.797050265092	5
0	14647	4886.873824214247	6
0	14649	4887.039198147978	7
0	14651	4887.414470420288	8
0	14653	4888.319859872257	9
0	14655	4890.300847270935	8
0	14661	4891.421483557638	7
0	14667	4892.571677639924	6
0	14673	4893.714042648143	7
0	14676	4894.425329642022	6
0	14681	4897.086026175001	5
0	14687	4899.087422611294	6
0	14688	4899.372477871967	5
0	14694	4901.156883088958	6
0	14700	4903.005111509468	7
0	14703	4904.978499598515	6
0	14707	4905.003467172721	7
0	14711	4905.884710892739	6
0	14718	4906.819768643963	5
0	14722	4907.427993355787	6
0	14728	4908.793759446229	7
0	14732	4913.746833492986	6
0	14737	4914.063907865814	5
0	14743	4914.661773487838	6
0	14747	4915.180586951638	5
0	14753	4916.176166452975	4
0	14759	4917.145053712102	3
0	14764	4917.265507382844	2
0	14773	4921.303949539316	3
0	14774	4921.456321596422	2
0	14782	4923.761326473807	1
0	14788	4924.036480158584	2
0	14791	4926.272942210154	3
0	14792	4926.438737415487	2
0	14798	4930.424499888262	1
0	14805	4931.147548749382	0
0	14814	4932.056465139345	1
0	14816	4934.791985231361	2
0	14818	4934.923867545614	3
0	14822	4937.297728739579	4
0	14824	4937.507510739001	5
0	14825	4937.542874424607	4
0	14834	4940.574288058036	3
0	14840	4941.247684638613	4
0	14841	4941.574219588278	3
0	14847	4942.561121328401	4
0	14851	4943.982043577676	3
0	14858	4946.125027698147	2
0	14864	4946.144841662443	3
0	14866	4947.200754659364	4
0	14869	4947.331471947234	3
0	14876	4950.615977594565	4
0	14878	4952.363574095164	5
0	14879	4953.81919711253	4
0	14887	4954.973586507581	5
0	14890	4957.441211974733	4
0	14898	4959.913889934199	5
0	14899	4959.996819062171	4
0	14904	4960.599156685448	3
0	14909	4960.635908262124	2
0	14914	4961.184357136275	1
0	14920	4964.557894004427	0
0	14958	4977.581370143179	1
0	14960	4979.213940328297	2
0	14961	4981.797181786671	1
0	14966	4981.896173022529	0
0	14989	4987.071941464603	1
0	14991	4987.089268301665	2
0	14992	4988.941709490564	1
0	14999	4990.412162426118	0
0	15006	4991.633401376964	1
0	15007	4993.084971177777	0
0	15023	5000.746132120627	1
0	15025	5001.289770804098	2
0	15026	5002.441937800196	1
0	15034	5003.80334575398	0
0	15050	5005.545383284501	1
0	15055	5009.024257205605	0
0	15062	5009.521735561234	1
0	15063	5009.878939991338	0
0	15070	5011.478973556421	1
0	15071	5013.525898369015	0
0	15083	5014.813245473957	1
0	15085	5017.687768127731	2
0	15086	5019.813517525593	1
0	15091	5021.00238968059	0
0	15097	5021.025152785634	1
0	15098	5021.33700537787	0
0	15110	5022.538504345505	1
0	15114	5023.321138791178	0
0	15122	5025.363123220808	1
0	15123	5025.457005155408	0
0	15137	5030.531149374857	1
0	15138	5030.684048141276	0
0	15144	5031.15803720129	1
0	15149	5033.658262567707	0
0	15158	5038.016410302313	1
0	15160	5040.200814255894	2
0	15161	5041.616142603822	1
0	15166	5042.466356443916	0
0	15181	5046.123614435734	1
0	15183	5047.38019346606	2
0	15184	5047.819763818933	1
0	15192	5048.688722990918	0
0	15203	5050.190370149081	1
0	15206	5050.934502565343	0
0	15218	5055.354156254887	1
0	15222	5057.505327166945	0
0	15231	5059.295800740092	1
0	15233	5059.354452484655	2
0	15235	5059.383167654033	3
0	15237	5061.106787057986	4
0	15240	5065.280246772023	3
0	15247	5066.145016213895	2
0	15253	5068.150435523641	1
0	15263	5070.800198531441	2
0	15264	5077.420595118818	1
0	15271	5079.988912738008	2
0	15273	5080.017698154436	3
0	15275	5080.475713632811	4
0	15276	5081.941909365045	3
0	15285	5083.89304040847	2
0	15291	5084.328602559511	1
0	15297	5086.844774191589	0
0	15303	5087.12235615076	1
0	15305	5089.413285977545	0
0	15317	5095.051560812711	1
0	15318	5100.712799912676	0
0	15344	5107.536030912608	1
0	15348	5108.771781802956	2
0	15350	5111.584463141507	3
0	15354	5112.832100595873	4
0	15358	5115.963494242173	5
0	15360	5117.497469762229	6
0	15361	5118.121970510835	5
0	15366	5119.269162550298	4
0	15372	5119.674679400056	3
0	15377	5121.02330773572	2
0	15383	5121.03577610129	3
0	15385	5121.322140970728	4
0	15388	5122.445238123829	5
0	15390	5123.107299058152	4
0	15396	5123.325438998173	5
0	15397	5123.61280310753	4
0	15403	5124.222290273636	5
0	15407	5125.515995146985	6
0	15408	5126.273407269268	5
0	15414	5127.306720526463	6
0	15415	5127.370974654236	5
0	15425	5130.433726288003	6
0	15428	5132.77149782813	5
0	15435	5137.096565708891	6
0	15438	5138.4733062888	7
0	15439	5139.204771847157	6
0	15446	5141.165474985406	5
0	15451	5141.252491057962	4
0	15460	5144.636588049365	5
0	15461	5144.762862901595	4
0	15466	5145.337544274891	3
0	15471	5146.063013006657	2
0	15477	5146.493237048927	3
0	15478	5147.30126561177	2
0	15482	5147.686263612191	3
0	15492	5152.512649934293	2
0	15497	5152.70294049691	1
0	15503	5152.914427425246	2
0	15505	5153.690579686787	3
0	15509	5153.942492461785	4
0	15510	5155.859979432643	3
0	15515	5156.233978691062	2
0	15521	5158.126985062936	1
0	15527	5158.253333040916	0
0	15537	5158.667849191746	1
0	15538	5161.481483778194	0
0	15562	5165.771979423994	1
0	15565	5166.855052627105	2
0	15567	5169.598516894952	1
0	15574	5171.329316124949	0
0	15587	5173.398079671497	1
0	15590	5175.352121747277	0
0	15596	5176.604539487752	1
0	15597	5176.811500204286	0
0	15605	5178.366720746287	1
0	15610	5179.994276085766	2
0	15611	5180.141980798182	1
0	15617	5182.691176468534	0
0	15642	5191.087591619559	1
0	15643	5194.364508525717	0
0	15672	5209.450079532818	1
0	15673	5209.728914880468	0
0	15687	5217.033565799273	1
0	15688	5217.951010303911	0
0	15695	5218.865882074722	1
0	15696	5220.437559593058	0
0	15713	5222.042551905112	1
0	15722	5225.687276455077	0
0	15734	5230.305143316865	1
0	15736	5230.996574825476	2
0	15738	5231.645762938804	3
0	15740	5232.354762467836	2
0	15748	5237.289631793902	1
0	15754	5238.44888814554	2
0	15757	5239.553357653789	3
0	15758	5241.379803215196	2
0	15764	5241.783348403108	3
0	15766	5242.05278198106	2
0	15774	5247.076056410318	1
0	15780	5247.480299925485	2
0	15784	5248.873034787204	1
0	15789	5248.882990171086	0
0	15806	5252.755128145853	1
0	15807	5257.599876508482	0
0	15813	5258.176436943314	1
0	15816	5260.889947585979	0
0	15827	5263.11977637993	1
0	15828	5263.177942126717	0
0	15834	5265.380756749218	1
0	15837	5266.247591424246	0
0	15841	5266.32550242631	1
0	15854	5271.59328625578	2
0	15856	5273.431640741334	1
0	15862	5273.691919701082	0
0	15868	5273.987047011552	1
0	15869	5274.053895035826	0
0	15889	5278.854638155543	1
0	15890	5279.016230566114	0
0	15896	5279.936915165887	1
0	15899	5281.137026049799	2
0	15900	5281.357214209576	1
0	15905	5282.690419955869	0
0	15920	5296.316124161269	1
0	15921	5296.974131658915	0
0	15941	5301.076519416984	1
0	15947	5303.333479517935	0
0	16000	5327.647263605702	1
0	16001	5327.79665371917	0
0	16010	5328.355693206701	1
0	16016	5331.146744430107	2
0	16018	5332.413485701558	1
0	16023	5332.601884436651	0
0	16040	5333.877255340565	1
0	16042	5334.919109544136	2
0	16043	5336.242177974564	1
0	16048	5337.140355069507	0
0	16052	5337.767707633288	1
0	16054	5338.809611114126	2
0	16062	5342.947210780943	3
0	16063	5343.369220133948	2
0	16071	5344.550206615149	1
0	16077	5344.834938961602	2
0	16081	5347.803477766077	3
0	16085	5349.574179400462	4
0	16086	5349.814643626422	3
0	16094	5353.581514408813	4
0	16097	5357.639817679314	3
0	16102	5357.775298608199	2
0	16108	5358.467776089493	1
0	16113	5359.691399080191	0
0	16120	5360.832309652157	1
0	16123	5361.510913224043	0
0	16166	5377.493532011562	1
0	16173	5380.861983088477	2
0	16175	5383.27191919002	3
0	16178	5383.490669272496	2
0	16184	5385.889415342808	1
0	16189	5385.892567959359	0
0	16205	5387.337776815767	1
0	16206	5387.346272750098	0
0	16215	5387.771161670074	1
0	16220	5389.957101451487	0
0	16243	5397.893592364388	1
0	16247	5400.468179369685	0
0	16286	5409.775352330261	1
0	16287	5411.851739905695	0
0	16297	5413.156788062514	1
0	16300	5417.158845784489	0
0	16317	5420.48485747844	1
0	16318	5420.535766227055	0
0	16343	5425.472665037841	1
0	16345	5427.270214316488	0
0	16366	5432.732850108458	1
0	16367	5434.294481542095	0
0	16373	5435.774426268227	1
0	16374	5436.19477940084	0
0	16385	5436.335558573846	1
0	16392	5440.206767341303	0
0	16410	5442.894849389054	1
0	16415	5447.009000409363	0
0	16431	5448.847406275776	1
0	16436	5456.276800365786	2
0	16438	5456.596493617707	3
0	16439	5459.037859070757	2
0	16445	5460.211219558777	3
0	16450	5463.800972726374	4
0	16452	5464.048970480852	5
0	16453	5464.266396171921	4
0	16461	5467.99067106357	3
0	16467	5468.411522979479	4
0	16468	5468.601102159431	3
0	16476	5470.018913567458	2
0	16484	5472.843755218773	3
0	16488	5474.036016278174	4
0	16489	5475.264708241435	3
0	16496	5482.130145163967	2
0	16501	5482.479626370257	1
0	16507	5483.571281430529	0
0	16527	5493.728350775777	1
0	16528	5496.50528533772	0
0	16541	5497.676696538161	1
0	16542	5498.715889524948	0
0	16553	5501.277376601821	1
0	16556	5502.686563107802	0
0	16563	5504.560116995049	1
0	16564	5506.345587157407	0
0	16570	5508.060331440018	1
0	16572	5508.263501457337	2
0	16575	5509.239055347268	3
0	16577	5509.678954971583	2
0	16583	5510.340012069286	3
0	16584	5510.463587655869	2
0	16594	5513.998986085294	1
0	16600	5514.301181594336	2
0	16602	5515.012781838594	3
0	16606	5515.4758934935	4
0	16608	5516.612588256048	3
0	16617	5518.035929508428	4
0	16618	5519.026268510553	3
0	16623	5519.119963281349	2
0	16630	5519.742065070778	3
0	16632	5522.11914437251	2
0	16641	5524.253580327246	1
0	16648	5527.248765200539	2
0	16649	5527.833672658631	1
0	16655	5528.897221484973	0
0	16688	5544.249559811883	1
0	16690	5547.347533154866	2
0	16692	5547.945267205841	3
0	16697	5552.25140454449	2
0	16704	5553.962705679419	1
0	16710	5555.516835751532	2
0	16713	5556.782650290859	1
0	16721	5559.91623794924	0
0	16730	5562.926614111601	1
0	16731	5563.780885678849	0
0	16745	5567.152710266319	1
0	16749	5567.643819755451	2
0	16752	5568.605271025253	1
0	16757	5568.798858685163	0
0	16775	5574.140197981428	1
0	16776	5574.179192965565	0
0	16787	5575.846908967792	1
0	16791	5577.914279375736	0
0	16797	5579.774377617744	1
0	16800	5580.553425154789	2
0	16801	5583.249132844688	1
0	16807	5584.395341062834	0
0	16816	5585.79846539816	1
0	16818	5588.352113638356	2
0	16821	5590.628922409726	1
0	16827	5590.669296740996	2
0	16829	5591.730350911456	1
0	16834	5591.73999057867	0
0	16854	5602.994304137015	1
0	16856	5603.71140198732	2
0	16861	5608.814460992583	1
0	16867	5609.033364864921	2
0	16870	5609.5275169929	1
0	16879	5612.097915954677	0
0	16900	5616.911335681459	1
0	16904	5617.991666257709	0
0	16912	5619.451388232917	1
0	16913	5620.370561204357	0
0	16945	5626.662986254223	1
0	16952	5629.302544793392	0
0	16958	5630.007586400056	1
0	16960	5630.276416408782	0
0	16982	5633.236745827834	1
0	16986	5637.886674109501	2
0	16990	5638.682697163716	3
0	16994	5641.762017133896	4
0	16997	5642.356615331398	3
0	17003	5644.091256249242	2
0	17010	5646.220378690039	3
0	17013	5646.74258976023	4
0	17016	5648.903658976566	3
0	17021	5650.09360359885	2
0	17031	5651.96229144086	1
0	17038	5652.276524090509	2
0	17040	5652.307698572419	3
0	17041	5653.216850322379	2
0	17050	5655.357266013965	3
0	17051	5655.469189198731	2
0	17059	5657.049767732783	3
0	17062	5657.236464944097	4
0	17065	5661.180425188036	3
0	17079	5666.739139193409	2
0	17087	5670.960144884789	1
0	17093	5671.186508162814	0
0	17105	5674.667009334188	1
0	17107	5675.219021381906	2
0	17108	5676.232325035839	1
0	17113	5677.254186276094	0
0	17121	5678.976958010509	1
0	17124	5680.331252402763	0
0	17143	5683.366275724656	1
0	17144	5683.643450728338	0
0	17157	5686.642505959038	1
0	17158	5687.185671718492	0
0	17170	5694.176127242686	1
0	17171	5695.974690516696	0
0	17181	5698.833312422749	1
0	17185	5700.496868788187	2
0	17187	5700.673233297537	3
0	17191	5702.967196658759	2
0	17197	5703.354095652379	3
0	17200	5703.594053895141	2
0	17206	5704.333831074217	3
0	17208	5704.513731172864	4
0	17213	5706.119507621183	3
0	17219	5707.810973995309	2
0	17225	5708.260626940774	3
0	17226	5708.787925944845	2
0	17232	5709.654898329199	1
0	17238	5709.684571995165	2
0	17241	5710.306039485612	1
0	17247	5710.811711527135	0
0	17272	5717.279579784759	1
0	17274	5718.404519265095	2
0	17278	5719.276140408354	3
0	17281	5720.308391071002	2
0	17286	5720.607412062639	1
0	17294	5721.621531137919	0
[...]
4	78004	26198.996154069252	8234.5776558651
4	78090	26228.85957889462	8262.845809567
4	78111	26235.303917604002	8268.4256817101
4	78116	26237.000831805873	8269.7948227427
4	78123	26237.914329613767	8266.738738185
4	78137	26241.589249712381	8266.8187084008
4	78149	26246.387146949071	8255.7945337049
4	78162	26250.104754979624	8256.844233872
4	78181	26254.472405780933	8260.7358019468
4	78188	26256.765113538121	8260.8937332241
4	78211	26262.314421171831	8263.6482809409
4	78231	26265.926697093187	8265.0189849145
4	78242	26273.057891226198	8262.5611386584
4	78254	26276.291981687819	8256.0440250663
4	78261	26277.596714375	8248.0068822699
4	78268	26279.815522037897	8238.69881797
4	78273	26281.747548918142	8236.3944307154
4	78278	26282.514623431528	8233.6732914292
4	78283	26286.030865231526	8221.970077327
4	78290	26288.680252267326	8223.7566665142
4	78300	26290.813414103747	8224.6452432081
4	78305	26292.682546796479	8223.6631074991
4	78316	26297.87893404729	8225.3824055087
4	78411	26335.516346374989	8243.997233237
4	78558	26377.615775633837	8285.8356227136
4	78565	26378.335966059403	8282.6472067211
4	78576	26382.110269745438	8281.8655476897
4	78581	26383.853931375884	8275.8386505129
4	78590	26385.930575856461	8270.0821452173
4	78600	26387.088747036237	8269.1436934784
4	78608	26392.418100856719	8272.0219494325
4	78619	26394.987633962873	8266.686548477
4	78625	26397.102598204949	8266.1686190239
4	78630	26400.284948633107	8267.2136258679
4	78635	26401.194003883149	8258.9704078671
4	78647	26403.889988350321	8260.997166762
4	78671	26412.024343957671	8265.3852935359
4	78676	26413.162704918788	8263.3546491229
4	78685	26415.221619408977	8257.4909709076
4	78696	26421.125104328592	8259.6196705612
4	78728	26431.014347945422	8267.073486509
4	78738	26440.890391184031	8263.2010670671
4	78761	26445.397643674156	8264.536139565
4	78852	26472.119205685662	8284.5895552309
4	78857	26473.919064722688	8281.5408815011
4	78862	26475.896041744336	8283.2054214786
4	78868	26477.954602360107	8281.4145687771
4	78873	26478.795703631281	8273.6117007636
4	78878	26482.195480226717	8268.2832562369
4	78883	26487.921159290651	8273.3482868662
4	78892	26497.215431818668	8279.1238434619
4	78917	26504.423704587094	8284.4447934611
4	78953	26514.212238903569	8291.8947617207
4	78973	26518.968504731707	8295.6217284415
4	79006	26534.167561798386	8310.7649887787
4	79102	26558.486178103224	8333.1284924774
4	79113	26561.521326580062	8331.7184855406
4	79124	26563.463241220147	8331.8739047685
4	79132	26564.916406308948	8325.3265189155
4	79149	26582.347600527631	8325.1616589433
4	79214	26595.588508828216	8337.6121167975
4	79232	26602.180374878156	8328.0972678925
4	79237	26602.966618200728	8326.6101421826
4	79245	26606.329275599539	8320.6933150945
4	79256	26607.901832200026	8317.6186635967
4	79263	26609.501915976835	8318.5463586715
4	79284	26616.140092056571	8321.4761355636
4	79457	26678.78972711054	8380.192482243
4	79474	26680.965483541567	8373.754371863
4	79479	26681.853006833173	8373.2943385473
4	79487	26684.636539693009	8375.9734747568
4	79504	26691.664154175866	8377.752053221
4	79515	26698.309841454391	8381.6401679223
4	79520	26702.704130870256	8380.611341292
4	79525	26704.319989685125	8364.1408838678
4	79532	26705.746188720429	8360.4892054975
4	79537	26708.247747665646	8358.6524967677
4	79545	26710.112295338787	8349.0879658828
4	79560	26715.818168310702	8354.7937652458
4	79605	26731.326435708077	8365.7421740064
4	79610	26732.284054394729	8365.5601464387
4	79617	26736.666124939345	8356.1802890897
4	79642	26742.737966205559	8361.9672526828
4	79665	26756.083912392505	8362.5413243205
4	79685	26760.451439639739	8366.001067751
4	79700	26766.90072755528	8372.4278542168
4	79707	26771.413669436141	8374.4012457096
4	79724	26781.018503907057	8379.559060386
4	79734	26784.121940602302	8376.2524344147
4	79742	26788.312955999926	8376.3679315839
4	79779	26798.258759223864	8378.232539529
4	79784	26798.263268886928	8353.5195975868
4	79789	26800.023276754241	8347.3180267109
4	79794	26805.612556716474	8352.0655315444
4	79803	26808.701778850508	8343.0680518384
4	79821	26812.801359959623	8344.9234237493
4	79826	26813.905718802803	8341.8803920095
4	79831	26815.288250549116	8341.6673140694
4	79838	26816.042516532638	8336.1072579279
4	79848	26816.642168892458	8327.66815954
4	79859	26822.347449119162	8333.2080516188
4	79867	26826.402985589009	8334.9913718172
4	79878	26832.387299274772	8331.4693798462
4	79893	26835.970238927859	8331.3054813666
4	79915	26838.897612733875	8332.3969023191
4	79922	26842.103234534787	8332.106709482
4	79941	26847.525057571344	8330.6323163536
4	80010	26866.899729576036	8342.4391463626
4	80020	26869.068278400033	8338.8648931615
4	80038	26874.854721542189	8336.3677642167
4	80054	26881.834654995555	8340.4059047343
4	80067	26889.430081593671	8341.7716232253
4	80112	26901.593852371199	8353.4459265391
4	80123	26909.218093376315	8359.0465798962
4	80148	26923.607435093698	8373.3016595243
4	80159	26929.098894002874	8376.050243948
4	80183	26931.783195006203	8378.6315821678
4	80190	26932.830366241922	8373.0448710968
4	80204	26936.130376729197	8364.5267060751
4	80210	26939.90520315963	8356.9445809104
4	80219	26944.361016563725	8360.7556286126
4	80236	26949.219937508318	8361.0859591066
4	80256	26953.042211402398	8360.8384070237
4	80268	26956.741814540593	8363.8055169425
4	80278	26965.150663358697	8371.5845613278
4	80296	26976.730514188285	8352.4862308668
4	80358	26999.851263370492	8361.4773313671
4	80373	27003.237544694907	8338.1938650679
4	80392	27012.513121372751	8340.133522148
4	80407	27021.64225154546	8334.0135888857
4	80430	27034.33381113132	8341.035037081
4	80536	27065.439845791406	8370.6018604592
4	80557	27072.212960928381	8375.6256687312
4	80642	27089.635776237055	8354.485345415
4	80670	27102.913841390367	8361.0069042126
4	80704	27113.232210145687	8370.5015756144
4	80720	27117.788768469205	8372.7861116827
4	80729	27122.91062896301	8373.031945563
4	80883	27164.045970802059	8412.4739979609
4	80888	27164.135939959129	8411.0300691634
4	80896	27165.436657805917	8410.7127160012
4	80906	27166.034244594907	8409.8812167403
4	80917	27168.561276519172	8409.5839670955
4	80934	27172.733248251182	8406.7420764072
4	80944	27178.348317849942	8406.3768089727
4	80971	27183.25900669066	8407.7189149714
4	80982	27188.963478147978	8400.2447711621
4	80990	27192.447994128175	8397.3465323229
4	80999	27198.145324758637	8402.442315404
4	81014	27202.405909832529	8404.022879948
4	81048	27218.756901735744	8417.0827012126
4	81061	27227.044600161808	8422.1516911434
4	81078	27234.664769288113	8429.3544051783
4	81671	27415.788144539064	8609.5135617572
4	81676	27417.156559292095	8610.5063665583
4	81683	27419.822239132821	8610.2073387313
4	81695	27423.753623817521	8613.6058003964
4	81720	27429.223622286627	8612.0664671398
4	81727	27429.985902415034	8594.7458349655
4	81738	27431.899291438062	8595.3071177712
4	81815	27452.054228545702	8611.4203501311
4	81830	27456.166684597724	8611.1034873035
4	81837	27458.450264889679	8612.8025536927
4	81850	27462.764723365192	8613.6336187599
4	81861	27466.732735730811	8617.2030558501
4	81885	27470.180209800846	8620.1491128366
4	81903	27476.738059301848	8620.5092764487
4	82029	27513.137199011534	8648.000803208
4	82040	27519.384694422859	8652.9927081391
4	82073	27528.158476617162	8654.1217204529
4	82080	27529.915244737692	8654.32450767
4	82097	27532.432707006403	8656.1334197505
4	82105	27533.103671253157	8651.4418114702
4	82121	27537.651155388166	8649.6151611376
4	82271	27589.084351574534	8696.0628612826
4	82467	27656.898286531156	8759.6791839754
4	82472	27658.760223286734	8760.6632694405
4	82479	27661.478613205311	8760.2278144299
4	82486	27662.315936912201	8760.5713225021
4	82494	27665.323783244902	8762.8652208577
4	82503	27669.7330716456	8764.0304702868
4	82514	27673.314227628291	8748.3051836905
4	82519	27673.53126575362	8734.3856175611
4	82524	27674.229627232952	8720.2721866303
4	82539	27679.817836972949	8718.1061016043
4	82556	27682.424102595412	8703.8986290761
4	82567	27686.07519654717	8707.5354899166
4	82574	27686.387007687523	8692.7814310581
4	82593	27694.223640457808	8700.4805088949
4	82621	27706.005220530093	8710.234699797
4	82641	27714.580205506849	8705.627398925
4	82685	27730.309788205775	8719.3746032913
4	82715	27736.29292378916	8720.2995931913
4	82726	27738.702680808876	8722.1029332478
4	82740	27740.81446930936	8720.8349703346
4	82751	27741.809745788947	8721.8245388052
4	82761	27749.237589255237	8717.1572040002
4	82796	27762.396804387884	8729.8399286109
4	82801	27763.298237958911	8729.1408502903
4	82811	27765.595799003273	8730.8528169747
4	82834	27773.45870697375	8726.8422829421
4	82856	27780.620817340417	8720.6905429366
4	82861	27781.925390546788	8718.5817808167
4	82879	27788.504506198335	8717.8851546587
4	82918	27803.992859163063	8717.1852740078
4	82940	27809.892807720508	8705.3180770312
4	82945	27810.964887199995	8705.3991639802
4	82957	27816.540112920615	8709.7223091728
4	82964	27819.127770263425	8699.8515885424
4	82982	27826.57211384331	8691.1909746377
4	83001	27834.591113573708	8696.5250319134
4	83006	27837.107375164842	8695.8791008257
4	83013	27839.938344854216	8696.5847714323
4	83020	27840.810959648742	8692.7791575674
4	83048	27849.318477858087	8695.1885766879
4	83056	27855.42974537471	8698.2743630578
4	83063	27855.797494265133	8695.2630725633
4	83072	27858.673389669893	8695.0666160813
4	83094	27864.689566118854	8688.5291682192
4	83120	27871.460984035015	8691.3748763266
4	83131	27873.80439058517	8686.7817350752
4	83142	27878.071706770241	8678.7338695852
4	83163	27886.377544341614	8685.0534417377
4	83270	27915.588470438628	8704.8755555117
4	83288	27925.834076483374	8707.9000587323
4	83433	27973.489843136021	8754.4207695642
4	83440	27974.51132313952	8742.1522909198
4	83450	27976.836252242283	8734.5347691132
4	83455	27978.044655687371	8718.4334307566
4	83461	27981.052173074846	8715.3272003921
4	83472	27984.620348970888	8709.0171828343
4	83773	28062.957202346516	8781.717642836
4	83780	28064.005132358571	8774.8339505492
4	83791	28067.493087083268	8776.266761084
4	83800	28068.893058700431	8773.5972756354
4	83818	28072.280288650571	8758.5462870114
4	83830	28075.277447128634	8756.6013005714
4	83835	28078.374871412056	8751.5442351073
4	83850	28089.18130455382	8762.0420894175
4	83869	28093.747382864169	8760.808896051
4	83874	28094.421907251963	8756.1483776902
4	83891	28099.25060410268	8735.8647284904
4	84057	28146.110314963939	8782.3106376755
4	84110	28159.843612827047	8793.2500168442
4	84116	28160.187055373851	8787.1786054603
4	84125	28165.024612271059	8776.8818788644
4	84130	28167.109821149273	8778.7213475133
4	84136	28168.852553677041	8772.9542841164
4	84141	28168.904398879191	8765.2744721747
4	84150	28174.874190381268	8765.7573035675
4	84155	28175.957448075599	8766.7151361388
4	84162	28178.490611304794	8767.4739529833
4	84175	28182.422485195737	8769.6441770194
4	84200	28191.228618930571	8774.7786423491
4	84212	28192.566269369746	8771.5680364429
4	84221	28197.100869096232	8772.0538522146
4	84232	28203.202907755094	8774.3218682676
4	84247	28210.802483906623	8780.0839913464
4	84323	28237.28168464488	8801.7450786739
4	84350	28245.347335296444	8800.8524510451
4	84357	28246.789970973698	8799.4008236324
4	84368	28248.287320988394	8797.2950373712
4	84375	28252.44830764774	8794.8862705417
4	84384	28253.693078149578	8789.6200217939
4	84402	28258.45512137608	8792.8385122704
4	84412	28260.381106730676	8785.4879451407
4	84420	28263.791811390894	8783.3726899446
4	84433	28266.87105967502	8779.4742761008
4	84464	28278.643722085154	8786.5989502368
4	84478	28286.170343762253	8790.8313874502
4	84602	28334.033041438515	8836.6275113281
4	84613	28337.979353756517	8837.9132008434
4	84681	28360.752276315792	8855.3307448977
4	84691	28363.536662531889	8857.893167321
4	84726	28369.648838029261	8861.4656376979
4	84745	28378.054429300024	8868.481223012
4	84763	28381.301910596887	8868.4861444982
4	84772	28385.855992126381	8867.7325173678
4	84778	28386.962985507559	8859.9311206024
4	84783	28389.198942611055	8853.7807569969
4	84796	28392.590621031246	8851.1614744024
4	84862	28419.994057111227	8874.4864498915
4	84893	28432.529605173831	8878.1223912399
4	84930	28444.158452989245	8884.7211259775
4	84941	28446.913187556667	8877.3892950334
4	84962	28450.863278885679	8880.2767308626
4	85004	28459.747447860521	8888.0628834212
4	85020	28463.552974291678	8883.1453165547
4	85386	28567.977602054372	8986.9328656807
4	85504	28597.272481126533	9010.858827629
4	85515	28597.913587555298	9007.0925938849
4	85520	28603.350249442019	9011.2279781032
4	85527	28607.145353563832	9006.1823095249
4	85533	28609.11104002518	9007.8880031843
4	85540	28612.284937124004	8994.597110237
4	85553	28619.213057487267	8999.9149391028
4	85568	28623.027907399995	9000.6678567036
4	85590	28627.182754352045	9003.8787136794
4	85603	28634.404641920903	9009.1945763792
4	85631	28644.284248352995	9008.3286644993
4	85646	28649.364137466348	8999.7908351495
4	85667	28654.943740547678	8997.8564091309
4	85712	28677.041289414071	9017.8591998944
4	85719	28678.535027137735	9003.0226163284
4	85724	28681.612206416217	8997.6464177182
4	85729	28682.81256219583	8992.7548082909
4	85734	28683.476972569817	8973.0855196063
4	85741	28685.750562628657	8968.499798958
4	85766	28697.733632236573	8975.9585753556
4	85814	28708.178852391194	8980.8720055979
4	85819	28712.487097428951	8973.931702308
4	85830	28718.119233723235	8952.3997515378
4	85847	28721.091266334407	8946.5127045143
4	85864	28729.256673496151	8952.9244796572
4	85959	28759.428028662505	8960.900376856
4	85964	28760.161344899495	8960.6521276158
4	85970	28762.578769154614	8959.1159341372
4	85978	28765.382294359461	8955.9173591107
4	85985	28768.234637244859	8957.1173101208
4	85997	28770.824164939655	8958.906922579
4	86002	28771.389260489845	8957.6884686669
4	86012	28776.147276135399	8962.2453326515
4	86023	28783.203267127998	8964.0811461186
4	86030	28784.538329241209	8954.9645729239
4	86043	28787.272951747995	8957.5633692414
4	86055	28788.648767950602	8954.8440206895
4	86072	28792.723406558833	8954.0067396203
4	86079	28792.867538921892	8951.4735984997
4	86102	28805.543516029868	8963.8470760757
4	86243	28862.076472519487	9014.8294842587
4	86270	28869.375663152286	9020.2312163718
4	86277	28870.866232448298	9018.2619576791
4	86288	28872.605067467209	9015.09360103
4	86296	28873.701729858713	9013.9037350643
4	86490	28944.761631838308	9070.9757493293
4	86495	28945.350062769934	9063.2302958009
4	86502	28946.137645865671	9062.1560661717
4	86512	28948.59221631372	9061.1182928828
4	86520	28952.236519296306	9054.2150868578
4	86547	28960.42817577041	9059.0334859949
4	86570	28966.158953441255	9054.8263007368
4	86582	28968.862053619233	9055.6118252081
4	86593	28971.621132803121	9057.2414011078
4	86601	28972.37636506616	9056.9743326188
4	86611	28976.140815859613	9058.5452193587
4	86616	28977.022570988429	9057.1660744278
4	86621	28977.864614208566	9055.2912681598
4	86626	28981.352920335831	9052.7928543887
4	86638	28984.026084427258	9055.1346648929
4	86655	28987.620099925675	9051.5625942015
4	86661	28990.72608219951	9049.682214652
4	86666	28995.023126692997	9048.481201754
4	86673	29000.23397329361	9042.5229333351
4	86686	29001.618030421187	9030.4181796281
4	86694	29010.141218456094	9025.4969763123
4	86715	29019.244927876798	9030.3021522726
4	86745	29027.438640696092	9021.6231637481
4	86752	29032.329208766205	9010.3196030641
4	86784	29043.46242031529	9015.0445129648
4	86838	29063.942944791066	9031.6402762748
4	86849	29068.288322715134	9028.9454902138
4	86856	29072.183925842033	9029.2308085205
4	86893	29082.334285976468	9038.7050765996
4	86898	29087.148357261504	9041.7352053107
4	86909	29091.988491036371	9043.3264960546
4	86962	29109.146378349364	9052.7226810614
4	87017	29124.031824478133	9053.7062774752
4	87022	29127.559297126251	9050.2045863445
4	87035	29129.723842370563	9048.6660639861
4	87116	29154.274849602081	9071.116790915
4	87123	29155.575346263022	9071.917854804
4	87135	29161.695032944531	9048.2592053712
4	87144	29163.676858609858	9045.721078773
4	87155	29174.302564926941	9055.0123413362
4	87160	29175.00907718919	9052.9665522482
4	87169	29178.758509839926	9051.5635948188
4	87174	29182.602813301821	9055.3288582222
4	87195	29193.048327289202	9064.9419012016
4	87546	29292.780494156298	9159.2755129493
4	87552	29294.585398127549	9157.7562451944
4	87559	29295.244175093431	9149.7984680649
4	87566	29297.023511491195	9138.3465232433
4	87602	29309.816598115695	9143.6402756049
4	87610	29312.51874201312	9145.4130565087
4	87617	29315.880529723851	9145.9678227967
4	87682	29341.159232016148	9159.2607880634
4	87838	29386.656344023758	9197.9383648359
4	87846	29389.901977475864	9184.6944550303
4	87851	29390.258676392125	9182.8027945051
4	87857	29390.811281608065	9183.2036769145
4	87864	29395.255219323682	9175.5395999564
4	87869	29399.6640737392	9179.165889602
4	87874	29402.325868286981	9178.791784481
4	87880	29408.843308987717	9184.6519363131
4	87887	29411.057439500462	9177.6726055364
4	87893	29413.164127065758	9177.1375524077
4	87898	29414.2910229686	9152.0836399479
4	87903	29417.351038899739	9140.6148009407
4	87910	29423.488801809952	9145.1783598038
4	87933	29429.783899315919	9123.343178075
4	87961	29438.383098511434	9124.2740433485
4	87968	29439.080027113795	9123.8411891663
4	87982	29440.935791825851	9115.1402046401
4	87987	29441.478801721295	9115.3649891535
4	87994	29446.172528620427	9101.5958098946
4	87999	29448.672876517313	9104.0285485926
4	88006	29451.086640514474	9090.347611253
4	88011	29452.190461075006	9090.3400204579
4	88017	29453.20304225092	9090.5641721139
4	88024	29455.939653562217	9086.6931104226
4	88031	29457.562267513683	9072.4507594214
4	88046	29461.639353103029	9062.0756225823
4	88053	29465.180930417184	9064.660211241
4	88110	29482.115014938152	9080.7020262037
4	88116	29482.902282348232	9080.5313148563
4	88121	29483.209413399143	9079.8791203017
4	88130	29486.260355063723	9053.5144919843
4	88161	29494.157197757115	9060.4420536365
4	88167	29494.978086607485	9055.6538303266
4	88175	29498.130754639235	9054.0323160351
4	88443	29607.452246563624	9147.2884958505
4	88452	29609.582289421372	9148.0063108479
4	88467	29613.756832656623	9146.5679862919
4	88487	29617.807248382224	9149.9608110587
4	88492	29618.221458193558	9145.8347807627
4	88501	29626.435108600174	9153.1926251651
4	88530	29640.476434713038	9166.924512318
4	88543	29645.279859481996	9170.1291255884
4	88570	29653.995213801444	9174.631066547
4	88575	29654.177025951507	9172.8019527098
4	88581	29655.10701250464	9169.2664739709
4	88588	29656.499761401934	9167.0041357713
4	88604	29662.583965253073	9161.3806477369
4	88638	29673.63934016844	9154.4324555407
4	88670	29688.824607322233	9167.4029959173
4	88675	29691.476432336345	9161.8963383659
4	88680	29692.634170217122	9150.5478873836
4	88687	29698.126351302147	9144.4837460355
4	88694	29699.108617165389	9143.1868677504
4	88709	29704.970556584266	9142.9214511107
4	88714	29705.888233906059	9142.0151949407
4	88731	29715.135403510366	9150.0560894631
4	88777	29726.823799025291	9150.4260942987
4	88786	29728.412961673862	9145.7961277463
4	88808	29737.84031975929	9143.4749919432
4	88831	29746.252054395997	9149.1374704179
4	88868	29751.548388387359	9144.4317549599
4	88899	29770.502443444645	9159.7114273222
4	88904	29771.208223898585	9130.5393819189
4	88923	29784.413934260464	9128.3187202859
4	89188	29877.499697589999	9210.9333136326
4	89219	29884.074478696349	9215.7790664671
4	89230	29886.918526211763	9214.3260904398
4	89242	29890.417645517402	9206.5508717072
4	89281	29911.813676609847	9198.1056231293
4	89304	29917.47290772681	9203.374441419
4	89314	29918.848772088491	9194.7184518234
4	89326	29923.641269487968	9199.469595837
4	89378	29931.310815958718	9205.7981962055
4	89397	29937.045757873775	9189.5675974889
4	89453	29951.134174785703	9201.53827332
4	89461	29953.716997712141	9187.9663353617
4	89473	29958.047178465924	9191.8349892585
4	89520	29972.970652385619	9204.8517793641
4	89562	29980.160248541545	9188.987181972
4	89573	29985.515640742492	9191.6270373772
4	89599	29991.095095798858	9193.3103625752

