version 2
run Third-n3-6-20191016-14:53:46-13104
attr configname Third-n3
attr datetime 20191016-14:53:46
attr experiment Third-n3
attr inifile omnetpp.ini
attr iterationvars ""
attr iterationvarsf ""
attr measurement ""
attr network org.omnetpp.queueing.Pizza
attr processid 13104
attr repetition 6
attr replication ""
attr resultdir results
attr runnumber 6
attr seedset 6
param **.PS.maxInventoriedPS 3
param **.U1.interArrivalTime exponential(4s)
param **.U2.interArrivalTime exponential(6s)
param **.PS.serviceTimeForInventoryU1 exponential(1.4s)
param **.PS.serviceTimeForInventoryU2 exponential(1.4s)
param **.PS.serviceTimeDirectU1 exponential(1.8s)
param **.PS.serviceTimeDirectU2 exponential(1.8s)
param **.PS.probabilityProducing 0.8
param **.CS.serviceTimeU1 exponential(2.3s)
param **.CS.serviceTimeU2 exponential(2.3s)

vector 0 Pizza.EntryQueueU1 queueLength:vector ETV
attr interpolationmode sample-hold
attr title "queue length, vector"
vector 1 Pizza.CS queueLength:vector ETV
attr interpolationmode sample-hold
attr title "queue length, vector"
vector 2 Pizza.EntryQueueU2 queueLength:vector ETV
attr interpolationmode sample-hold
attr title "queue length, vector"
vector 3 Pizza.sink lifeTime:vector ETV
attr interpolationmode none
attr title "lifetime of arrived jobs, vector"
attr unit s
vector 4 Pizza.sink lifeTimeU2:vector ETV
attr interpolationmode none
attr title "lifetime of arrived jobs, vector"
attr unit s
0	0	0	0
0	16	10.9673232238	1
0	17	11.796376726956	0
0	24	13.990789176693	1
0	26	16.543405505668	0
0	39	19.316227995523	1
0	40	23.326989105443	0
0	52	26.172271768259	1
0	54	26.396329469613	2
0	59	30.766858664743	1
0	65	30.877733049412	2
0	67	32.55756393984	1
0	72	33.138727915656	0
0	94	36.775903971779	1
0	96	39.342566043105	0
0	127	48.66015046339	1
0	129	48.905860554684	2
0	130	49.403427209023	1
0	135	50.957529649561	0
0	159	55.946522304719	1
0	163	58.428793108479	2
0	165	59.226621447551	3
0	168	60.70458750163	2
0	173	61.37051730271	1
0	179	61.840053494613	2
0	180	64.485510685945	1
0	189	67.129541887903	0
0	229	78.159430440477	1
0	230	78.704912150132	0
0	290	113.776700787611	1
0	293	114.330112438994	0
0	300	115.020989479914	1
0	308	117.846907745528	0
0	317	121.764922774458	1
0	320	124.25694640012	0
0	326	125.089326449264	1
0	329	125.264016082203	2
0	330	126.854024099779	1
0	336	127.655333251455	2
0	337	128.690802315361	1
0	343	128.822669031234	2
0	344	128.966384246297	1
0	351	130.513159883738	2
0	354	131.864789490338	1
0	360	131.94799420858	2
0	361	132.170166134589	1
0	370	132.915101661273	0
0	397	141.513867075669	1
0	398	142.288716213265	0
0	406	145.417498700791	1
0	407	145.815160104107	0
0	416	147.657010246322	1
0	421	154.669462227617	0
0	454	163.656360660417	1
0	456	163.763389464681	2
0	457	164.318170433496	1
0	464	165.030057470393	0
0	486	172.285399511093	1
0	489	179.027793686092	0
0	517	185.630749331399	1
0	521	188.782942698293	2
0	522	188.918959139971	1
0	528	191.434884499424	2
0	529	191.639927741814	1
0	535	192.919025448919	0
0	563	201.307950643893	1
0	565	201.789890732227	2
0	566	202.420174832422	1
0	577	202.997020772703	2
0	581	207.104478158094	3
0	582	208.544479466524	2
0	587	209.435785878299	1
0	594	211.24322742955	2
0	596	212.966114061878	1
0	601	213.234486348393	0
0	610	214.570616580574	1
0	618	221.384879893471	0
0	625	221.938027547744	1
0	627	222.215994778607	2
0	631	222.386696228225	3
0	633	224.789428786754	4
0	636	226.299762839148	3
0	641	226.62429202207	2
0	649	229.49659094418	3
0	651	230.855404851816	4
0	652	230.888786668495	3
0	657	232.3242621661	2
0	662	233.209900833124	1
0	668	234.15315339417	2
0	672	236.846838314447	1
0	678	239.023304334757	0
0	684	240.313311603635	1
0	688	243.875840273631	2
0	689	244.94345846353	1
0	696	246.318031599305	2
0	698	246.77694122028	1
0	703	249.383042598509	0
0	720	251.473339267721	1
0	721	252.058771925427	0
0	727	252.541065800604	1
0	728	253.966092346248	0
0	745	255.950771796197	1
0	749	257.937251199471	0
0	773	265.115378312898	1
0	774	269.045550524723	0
0	780	269.140900200914	1
0	781	270.947972874691	0
0	800	273.359593062732	1
0	807	277.369362329548	0
0	821	281.33750667093	1
0	822	284.067651065886	0
0	828	284.578465616814	1
0	829	284.992139368939	0
0	865	292.2945608962	1
0	874	297.290378978944	0
0	911	309.061084683733	1
0	913	310.559145603034	2
0	914	310.874931473243	1
0	923	313.141157386981	2
0	924	315.385089671891	1
0	931	316.965807641949	0
0	950	322.332870366094	1
0	954	325.384320152754	0
0	961	327.900415880527	1
0	962	327.979577438872	0
0	1006	353.207170532961	1
0	1008	353.236210772854	2
0	1010	353.809170015685	3
0	1011	354.74335624708	2
0	1017	356.466822295499	1
0	1025	358.9155779954	2
0	1027	360.00881136704	3
0	1028	360.098881892161	2
0	1033	360.795950256445	1
0	1044	364.669677113702	2
0	1046	365.756018836938	3
0	1047	366.48990057256	2
0	1053	368.349675616293	3
0	1055	368.704805316308	4
0	1057	369.577048401095	3
0	1062	369.811617181854	2
0	1068	372.471010056108	1
0	1073	373.007399687383	0
0	1097	378.592910224442	1
0	1098	378.757486401829	0
0	1131	392.264938952954	1
0	1133	393.075147773167	2
0	1134	393.173892462597	1
0	1140	395.114631714079	2
0	1143	398.741067661374	3
0	1144	400.362276274144	2
0	1151	401.314923506561	1
0	1160	405.056096294854	0
0	1166	405.436511978016	1
0	1169	407.83289704082	2
0	1171	409.165687500921	3
0	1172	409.424280319889	2
0	1181	414.964697852667	1
0	1188	415.376589238471	2
0	1189	415.949107031887	1
0	1195	416.058961745413	2
0	1196	416.220377696583	1
0	1202	416.414551371489	0
0	1236	432.507773493772	1
0	1239	434.747876599547	0
0	1252	437.824205675165	1
0	1254	438.131899631316	0
0	1290	451.896410087686	1
0	1291	452.23282675637	0
0	1297	453.251348442165	1
0	1299	454.610906026364	0
0	1348	474.381187651629	1
0	1350	474.688234160519	2
0	1356	477.493866429739	3
0	1359	479.060871840425	2
0	1368	481.992747440454	1
0	1374	482.617262422982	2
0	1377	484.216537784405	1
0	1382	484.501650618757	0
0	1404	490.470121888094	1
0	1405	490.743389574399	0
0	1419	493.885771259524	1
0	1420	495.166148559193	0
0	1466	509.716550676111	1
0	1467	511.767902903951	0
0	1473	513.132821610459	1
0	1475	514.110279011612	2
0	1476	515.763397703714	1
0	1481	516.475030207641	0
0	1520	543.571150867133	1
0	1521	543.618427748004	0
0	1528	544.721689269741	1
0	1529	545.094656481154	0
0	1537	546.495599693108	1
0	1539	546.671348015899	2
0	1543	547.434619781124	3
0	1545	549.048885386293	2
0	1552	549.47436553455	3
0	1553	549.488431138067	2
0	1559	549.804154702924	3
0	1563	551.352794919678	2
0	1568	552.119353811706	1
0	1576	554.858687707423	0
0	1596	559.651783434046	1
0	1597	560.587632093056	0
0	1646	580.923128429803	1
0	1649	582.308474204658	0
0	1660	584.463052967836	1
0	1662	584.940026514824	2
0	1664	587.237783635845	1
0	1669	587.443253758859	0
0	1685	594.79563145089	1
0	1686	594.892126901649	0
0	1717	601.781756112974	1
0	1718	601.942216440041	0
0	1727	603.257549005017	1
0	1729	605.516776499064	2
0	1733	610.610475983358	1
0	1738	611.365246506668	0
0	1744	611.532637917876	1
0	1749	617.953461213316	2
0	1754	620.425984645715	3
0	1755	620.892737135541	2
0	1763	622.510987727123	1
0	1768	623.457321585241	0
0	1777	626.188798890911	1
0	1779	626.613893504924	2
0	1780	627.452837204036	1
0	1785	627.804750997257	0
0	1797	630.752911102754	1
0	1801	631.557119071556	0
0	1816	634.330501612563	1
0	1818	634.830971631439	2
0	1820	635.408772826513	3
0	1821	638.283533099595	2
0	1827	638.788339361016	3
0	1828	638.813345493053	2
0	1835	641.916643369738	1
0	1843	643.85540111774	0
0	1851	645.1583162328	1
0	1853	645.378819843498	2
0	1854	645.59084994455	1
0	1863	647.574542688337	2
0	1864	649.15904522928	1
0	1869	649.702966428746	0
0	1875	650.453857479711	1
0	1877	651.746890923605	0
0	1901	652.922120912179	1
0	1906	656.831574365307	0
0	1924	658.927622830982	1
0	1926	659.26914555729	2
0	1927	660.02284580461	1
0	1933	660.948269957688	2
0	1935	661.537995881228	1
0	1940	661.801127370281	0
0	1950	663.211631931457	1
0	1953	665.439885762222	0
0	1966	667.056641516652	1
0	1971	671.616981132993	2
0	1975	672.471209663874	3
0	1980	673.943900968169	2
0	1987	677.576079488075	3
0	1989	678.429042132741	4
0	1991	683.644619450598	5
0	1993	683.676757890592	6
0	1994	683.945380948318	5
0	2002	685.459595434022	4
0	2007	685.709199352791	3
0	2014	686.939244588127	2
0	2022	688.321692596181	3
0	2023	689.509808283131	2
0	2029	689.968905596358	3
0	2031	690.824529907504	4
0	2036	697.760215421057	3
0	2044	700.986767212826	4
0	2045	702.093636391516	3
0	2051	704.671965583874	4
0	2053	706.712032397263	5
0	2055	708.684796458906	6
0	2058	714.334942071559	5
0	2063	714.849463804619	4
0	2067	715.913952624827	5
0	2071	719.200756545254	6
0	2072	720.004559219369	5
0	2081	723.920411822793	6
0	2086	726.7490367905	5
0	2094	727.47493906238	6
0	2098	729.864772990667	7
0	2099	730.204720891242	6
0	2108	731.489016896738	7
0	2109	732.34888033394	6
0	2117	733.42723926735	7
0	2118	733.597823599358	6
0	2123	734.299728392892	5
0	2130	735.639247740607	4
0	2136	736.898625826535	3
0	2142	738.898479558564	4
0	2143	739.429239841603	3
0	2147	740.255827886281	4
0	2151	744.392788291305	5
0	2155	745.188965528145	6
0	2157	746.573228314688	7
0	2162	748.066380473975	8
0	2164	748.446545945602	9
0	2166	752.313372846152	10
0	2167	753.699653700419	9
0	2173	754.846992720995	8
0	2178	754.954825243918	7
0	2184	755.563051916472	8
0	2186	755.874194076322	9
0	2191	758.251937741852	8
0	2197	759.128760098354	9
0	2200	763.363306910766	8
0	2207	767.672363056092	7
0	2212	767.976081761181	6
0	2218	769.777358913739	7
0	2221	772.385148917898	6
0	2226	772.948084615707	5
0	2231	774.488226586397	4
0	2237	778.205812971794	5
0	2243	780.523830961771	6
0	2245	781.340125813355	7
0	2247	781.43470003498	6
0	2254	783.761263669397	5
0	2262	784.961076166854	6
0	2264	786.341113118383	7
0	2265	786.976626895303	6
0	2273	789.199774862603	5
0	2279	791.3667647834	6
0	2281	794.426156970769	7
0	2282	794.928770105986	6
0	2288	795.092201786587	7
0	2289	795.822821436125	6
0	2296	798.969709279982	5
0	2302	802.81553090901	4
0	2312	805.526455624573	5
0	2316	806.997118044649	6
0	2318	807.201218693365	7
0	2319	807.525646997299	6
0	2324	808.029545929792	5
0	2330	809.236630734035	4
0	2336	810.295113002921	5
0	2338	810.873780917865	6
0	2342	811.514777766238	7
0	2343	811.678987514937	6
0	2349	813.116376918459	5
0	2355	819.166993175874	4
0	2360	819.992933153609	3
0	2365	821.019534919342	2
0	2371	821.291175967364	3
0	2372	822.531391818809	2
0	2380	824.327665162894	1
0	2386	826.140630363781	0
0	2415	830.347054106545	1
0	2416	831.563963623974	0
0	2422	831.962026816257	1
0	2424	833.312823321117	0
0	2432	834.272962755849	1
0	2434	835.219900815855	0
0	2446	840.544655991695	1
0	2451	845.565124930348	0
0	2474	849.200456994342	1
0	2475	849.341394591515	0
0	2483	851.607705041935	1
0	2484	852.777439026311	0
0	2490	852.942755284622	1
0	2494	855.300112290084	2
0	2495	856.09937626543	1
0	2500	856.982363292538	0
0	2511	857.177122757116	1
0	2515	859.084902896691	2
0	2517	860.961383746017	3
0	2519	866.719887620449	2
0	2530	869.839569452343	3
0	2531	870.515980017028	2
0	2537	871.933942856374	3
0	2540	875.463930281477	4
0	2542	875.684176156748	5
0	2543	876.853327752722	4
0	2551	877.878439769482	3
0	2556	878.082251763301	2
0	2563	879.124060428855	1
0	2568	879.525674491673	0
0	2591	885.341751858352	1
0	2595	887.488995908325	2
0	2596	887.621145359192	1
0	2603	888.116233472979	2
0	2604	888.731950357834	1
0	2611	891.185087448765	2
0	2614	892.342564248296	1
0	2620	892.513656099185	2
0	2622	892.837770127843	3
0	2623	892.935360121667	2
0	2629	893.819611585174	3
0	2633	895.225623279154	4
0	2635	896.249559380786	5
0	2639	897.305778165398	6
0	2640	897.610037706378	5
0	2653	899.159158734776	6
0	2655	899.264681292777	7
0	2656	899.538588588662	6
0	2662	900.300631315057	7
0	2665	900.635615153785	8
0	2667	904.156618743962	7
0	2672	905.323339995012	6
0	2677	905.527560760242	5
0	2682	905.66618840402	4
0	2689	907.821285799841	3
0	2694	908.550524252306	2
0	2699	911.974046774307	1
0	2707	914.030565640144	0
0	2728	919.428960397965	1
0	2734	922.382498675448	2
0	2736	923.405131993084	3
0	2737	924.131480352157	2
0	2743	925.826575942218	3
0	2745	926.396901809428	4
0	2747	927.549212182746	5
0	2748	928.229374700048	4
0	2753	930.034200128631	3
0	2761	932.933644531554	2
0	2768	935.337230551375	3
0	2769	937.900521134871	2
0	2776	938.557248132677	3
0	2777	938.661469375857	2
0	2783	941.173629678263	1
0	2791	942.310326385695	0
0	2798	942.994731081695	1
0	2800	944.951634572963	0
0	2812	950.503232879401	1
0	2813	951.502068411188	0
0	2825	953.075972307091	1
0	2829	955.381564816595	2
0	2830	956.467791509995	1
0	2835	956.632404982308	0
0	2854	962.705427955186	1
0	2856	964.944828199142	2
0	2857	966.78766926158	1
0	2862	967.230532854763	0
0	2880	973.614926587076	1
0	2882	973.744810755134	2
0	2883	975.342039843861	1
0	2890	976.805787226988	0
0	2915	987.154126110574	1
0	2918	990.179919635196	0
0	2932	993.706872662658	1
0	2934	994.261218566217	2
0	2937	997.640185575347	3
0	2938	1002.636350061046	2
0	2943	1003.014582938282	1
0	2951	1003.763688836426	2
0	2953	1004.659093925967	3
0	2954	1005.256616046924	2
0	2964	1008.80342100202	1
0	2976	1012.077120805265	0
0	2987	1016.671393744072	1
0	2988	1016.75842571514	0
0	2994	1017.863640549833	1
0	2995	1017.971882065025	0
0	3015	1022.748302521597	1
0	3016	1024.5532430656	0
0	3031	1032.490873383175	1
0	3033	1034.100003744944	2
0	3036	1040.307647838689	1
0	3043	1042.188524879538	0
0	3071	1048.328479282215	1
0	3076	1050.710441803201	2
0	3077	1056.127878010736	1
0	3084	1059.012567138058	0
0	3096	1060.949743656339	1
0	3098	1060.996694330744	2
0	3105	1065.041316881561	3
0	3106	1065.103407474052	2
0	3111	1065.568234930378	1
0	3118	1066.802369155374	2
0	3119	1067.104899648894	1
0	3124	1067.827741868933	0
0	3130	1068.155244052594	1
0	3135	1074.467912420631	0
0	3173	1089.924404844621	1
0	3175	1090.778206081606	2
0	3177	1091.876188741747	3
0	3179	1092.519400611813	4
0	3183	1092.673289384889	5
0	3184	1092.856017195325	4
0	3190	1092.948443404427	5
0	3192	1093.250782633218	6
0	3194	1094.12679325236	7
0	3195	1094.337902661517	6
0	3200	1097.196184847545	5
0	3211	1100.731407063086	6
0	3213	1101.497547313564	5
0	3224	1106.078919909935	6
0	3225	1106.567431276736	5
0	3231	1106.751841381168	6
0	3233	1107.260842392906	5
0	3239	1108.604925896331	4
0	3246	1109.92273807555	5
0	3247	1110.197643012338	4
0	3252	1112.637407996988	3
0	3259	1113.842967858811	2
0	3266	1115.973390017654	1
0	3274	1116.781791032784	2
0	3277	1120.307453826257	1
0	3282	1122.102481237361	0
0	3293	1131.982990004672	1
0	3296	1139.572102195492	0
0	3303	1143.571996590015	1
0	3304	1143.702869807419	0
0	3323	1149.855010944175	1
0	3325	1151.744637803318	2
0	3326	1151.99785666546	1
0	3331	1152.584812422384	0
0	3338	1152.624363230085	1
0	3339	1152.753254927746	0
0	3345	1154.254080556283	1
0	3347	1155.130026302365	0
0	3368	1164.988125738058	1
0	3373	1167.972134311228	0
0	3385	1169.049410613867	1
0	3386	1169.624809344745	0
0	3393	1170.820606005397	1
0	3401	1177.849192940015	2
0	3403	1178.588536992107	3
0	3404	1178.708687196198	2
0	3411	1179.495780561048	3
0	3412	1180.481703738886	2
0	3422	1182.845748450695	3
0	3428	1184.492096507964	2
0	3433	1184.86262736663	1
0	3439	1185.541356204627	2
0	3440	1185.571338589503	1
0	3445	1185.779760222706	0
0	3451	1186.749853598162	1
0	3454	1187.863203870166	0
0	3460	1188.645363855873	1
0	3467	1193.644360589674	0
0	3495	1203.185806716259	1
0	3498	1205.357034933913	0
0	3504	1206.88305989502	1
0	3505	1207.202583939192	0
0	3516	1208.578757457563	1
0	3518	1208.953763858404	2
0	3520	1209.347707750564	3
0	3523	1210.047729605625	2
0	3530	1214.443925802119	3
0	3531	1214.475936613728	2
0	3537	1214.967078272281	3
0	3541	1216.573653431218	4
0	3544	1217.70847364894	3
0	3550	1217.922426907319	4
0	3551	1217.961716693897	3
0	3556	1220.080232136631	2
0	3562	1221.686713530799	1
0	3567	1222.059556906202	0
0	3579	1227.260506563468	1
0	3581	1229.101199217503	2
0	3585	1233.513056679471	3
0	3586	1234.020931212703	2
0	3591	1234.16020281217	1
0	3597	1234.993790714839	2
0	3601	1235.754161444217	3
0	3602	1236.024554748835	2
0	3607	1236.105502567668	1
0	3613	1237.713640642803	0
0	3619	1238.499331465335	1
0	3620	1238.913045641356	0
0	3626	1241.151686128268	1
0	3628	1241.830430376276	2
0	3637	1244.708500376782	3
0	3640	1244.953756228798	4
0	3644	1246.575244170965	5
0	3645	1247.345980148885	4
0	3650	1248.267351164085	3
0	3654	1248.525039183756	4
0	3657	1249.529820284771	3
0	3662	1255.340056180292	2
0	3669	1258.699550365781	1
0	3676	1260.751879524467	0
0	3682	1262.466607140177	1
0	3686	1270.283995314446	0
0	3694	1272.240341210499	1
0	3698	1273.402161339898	2
0	3700	1273.462921583273	3
0	3703	1274.081391281571	4
0	3704	1274.461579757319	3
0	3711	1274.979304903435	2
0	3716	1276.114283530378	1
0	3722	1276.155481468842	2
0	3724	1281.362505336282	1
0	3729	1281.510921545243	0
0	3735	1283.454591894323	1
0	3737	1284.42114595223	0
0	3748	1285.543350604985	1
0	3753	1287.351330826089	0
0	3778	1292.155600359981	1
0	3780	1293.912898949421	0
0	3788	1294.351952537594	1
0	3789	1294.81880797419	0
0	3799	1295.812912097337	1
0	3805	1299.059509342608	2
0	3808	1299.586489217928	3
0	3810	1302.6751654108	4
0	3813	1304.54215262152	3
0	3818	1304.734556871041	2
0	3826	1308.730514635296	1
0	3833	1310.557912038345	2
0	3834	1312.959424694478	1
0	3842	1315.207294704958	2
0	3844	1316.262061488056	3
0	3850	1319.971691585269	2
0	3856	1320.352376640885	3
0	3858	1323.293313364017	4
0	3863	1326.575558268236	3
0	3869	1326.587650348016	4
0	3874	1330.708388089241	3
0	3880	1330.808708385851	4
0	3881	1331.332789661634	3
0	3886	1331.351730771476	2
0	3893	1332.947408313043	3
0	3897	1337.470093859775	4
0	3898	1337.941735057029	3
0	3906	1341.068468835554	2
0	3911	1341.216145381928	1
0	3916	1341.821111243529	0
0	3928	1343.01368747169	1
0	3932	1346.870576001208	0
0	3955	1350.876955144766	1
0	3956	1351.399102457436	0
0	3962	1352.24777249555	1
0	3965	1355.16692471325	2
0	3966	1357.306818139321	1
0	3975	1357.893089488554	0
0	3992	1360.179423557486	1
0	3993	1360.950544528033	0
0	3999	1361.448586033781	1
0	4001	1364.002995586834	0
0	4007	1364.077021726874	1
0	4011	1365.50968754236	0
0	4024	1367.315708896133	1
0	4028	1368.558229114689	2
0	4033	1369.624036033285	1
0	4038	1370.416614561061	0
0	4049	1372.072969600197	1
0	4052	1373.160765967119	0
0	4058	1373.7852156834	1
0	4060	1374.439304514154	0
0	4089	1384.885969755747	1
0	4093	1385.504942481841	0
0	4100	1387.827284606661	1
0	4102	1387.883329535737	2
0	4103	1388.031400618191	1
0	4109	1390.959776600805	0
0	4118	1395.26044131968	1
0	4119	1397.555624192359	0
0	4148	1412.64795118826	1
0	4149	1417.819815472686	0
0	4175	1422.88218065176	1
0	4179	1423.697324205067	2
0	4181	1424.971724522699	3
0	4182	1426.336628074099	2
0	4187	1429.198845675921	1
0	4193	1429.922574035521	0
0	4201	1432.019285224197	1
0	4208	1435.064916525821	2
0	4209	1436.31082061756	1
0	4214	1437.978835847489	0
0	4244	1441.654444101073	1
0	4245	1444.170015951336	0
0	4260	1453.378226492707	1
0	4262	1453.615759223544	2
0	4264	1457.217271067687	3
0	4265	1463.959835001091	2
0	4276	1466.994013152104	1
0	4282	1467.386949217356	2
0	4286	1468.781064610408	3
0	4287	1468.881571184885	2
0	4293	1469.026175059278	3
0	4295	1469.076164243955	4
0	4296	1469.713415789862	3
0	4301	1470.6326063511	2
0	4306	1472.00877598655	1
0	4320	1477.515961900504	0
0	4345	1485.877043770255	1
0	4350	1487.098898109555	0
0	4364	1495.209110508392	1
0	4366	1501.811438832597	2
0	4369	1503.254716012989	1
0	4377	1504.637612941423	2
0	4379	1504.668190243013	3
0	4381	1504.886595395993	4
0	4386	1505.061109236164	5
0	4388	1505.547271418848	6
0	4389	1505.655823679446	5
0	4394	1506.170456156167	4
0	4399	1507.099535056014	3
0	4405	1509.437585160556	2
0	4413	1510.381887508747	3
0	4418	1511.31061736852	4
0	4420	1512.781991160484	3
0	4425	1513.774782709211	2
0	4432	1516.100901754934	1
0	4440	1520.837940712544	2
0	4443	1525.393447915095	1
0	4449	1526.373607640403	0
0	4466	1532.64690333183	1
0	4467	1533.263383825196	0
0	4479	1533.848375462367	1
0	4484	1535.364414905231	0
0	4501	1538.956462683447	1
0	4502	1539.83426571482	0
0	4508	1539.930748587792	1
0	4510	1540.427922198913	2
0	4512	1540.598952797496	3
0	4514	1542.740733988477	2
0	4521	1544.475745397888	3
0	4523	1546.555372495477	4
0	4525	1546.696942564884	5
0	4527	1547.262796766094	6
0	4528	1548.917747383723	5
0	4534	1549.817956834447	4
0	4540	1549.899970612087	5
0	4545	1553.455617161252	6
0	4551	1557.527122257217	7
0	4553	1557.600418317479	8
0	4554	1559.14573698812	7
0	4561	1560.145512510265	6
0	4566	1560.443719622343	5
0	4573	1561.779694295302	6
0	4575	1562.22780238644	7
0	4577	1562.529268504317	6
0	4585	1565.198854104611	5
0	4591	1570.126471480268	4
0	4599	1571.065992659545	5
0	4601	1573.968667474529	4
0	4606	1575.885640608241	3
0	4612	1576.916423943063	4
0	4614	1577.155357621638	5
0	4616	1579.555555376817	6
0	4619	1582.141758118276	5
0	4624	1583.238287106995	4
0	4628	1584.710108556033	5
0	4632	1586.540302743404	4
0	4639	1589.164678550897	5
0	4640	1589.326989030397	4
0	4646	1592.447315825601	5
0	4652	1592.933959881278	6
0	4653	1593.352062661491	5
0	4659	1596.388412716695	6
0	4660	1596.439902030869	5
0	4665	1597.691402005591	4
0	4669	1599.268226961717	5
0	4672	1603.402117964633	4
0	4677	1605.184486852003	3
0	4681	1607.790680560763	4
0	4683	1608.575093007733	5
0	4685	1610.383496853209	6
0	4690	1614.400572728409	5
0	4700	1618.311494618278	6
0	4701	1618.360485425324	5
0	4707	1618.789940463126	6
0	4713	1624.466204498407	7
0	4717	1626.483948793688	8
0	4718	1627.378969196288	7
0	4727	1629.857740766321	6
0	4736	1631.66642768701	7
0	4737	1632.153243808838	6
0	4742	1632.296924117668	5
0	4748	1633.07488747591	4
0	4757	1637.200565386588	3
0	4764	1639.117028949228	4
0	4765	1641.049652690343	3
0	4771	1645.709923506099	2
0	4780	1646.873659874444	3
0	4781	1647.78325632969	2
0	4788	1648.068584089969	3
0	4789	1648.37855911024	2
0	4795	1652.450984087059	1
0	4803	1657.328064827604	0
0	4815	1660.113811807133	1
0	4817	1660.589911828073	2
0	4818	1660.87294028633	1
0	4823	1661.10634055349	0
0	4830	1662.020811804909	1
0	4831	1663.052853873092	0
0	4849	1663.834994233784	1
0	4852	1666.345918235344	2
0	4854	1669.740150491965	1
0	4861	1672.317275139779	0
0	4879	1680.133446200029	1
0	4883	1681.340396279731	0
0	4889	1682.11460303535	1
0	4891	1682.137104726303	2
0	4894	1685.184723193783	3
0	4895	1685.608039485456	2
0	4903	1687.262862073705	1
0	4910	1691.712195687702	2
0	4911	1692.844053645461	1
0	4917	1694.406117195452	0
0	4935	1701.463700288299	1
0	4936	1702.877028189581	0
0	4945	1703.37665512818	1
0	4948	1704.77948070399	0
0	4961	1710.321404366597	1
0	4963	1711.202220203249	0
0	4972	1713.79483030313	1
0	4974	1714.891513653768	0
0	4997	1719.746701412526	1
0	4998	1720.625782271753	0
0	5010	1727.294816402094	1
0	5015	1731.7929118156	0
0	5034	1737.969202112673	1
0	5035	1738.590155270422	0
0	5049	1741.381543743918	1
0	5055	1743.803920969922	2
0	5056	1744.060689094528	1
0	5062	1746.49001314606	0
0	5086	1750.962727981003	1
0	5087	1753.234866974572	0
0	5093	1753.580519277807	1
0	5097	1757.090001913792	0
0	5114	1767.701099829406	1
0	5117	1768.165622946343	0
0	5141	1774.347060063139	1
0	5143	1774.421969984508	2
0	5145	1775.526521235537	3
0	5149	1776.319330387445	4
0	5151	1776.732522888727	5
0	5153	1781.621445716767	6
0	5154	1782.707333964969	5
0	5160	1783.15900288252	6
0	5161	1783.814052824369	5
0	5166	1785.834462224031	4
0	5172	1786.323825545833	5
0	5175	1788.426347376724	4
0	5182	1790.13876420362	5
0	5184	1790.603498439158	4
0	5190	1791.736790225886	5
0	5191	1795.171442948513	4
0	5199	1799.532796860423	3
0	5207	1801.45979905115	4
0	5209	1804.271077092403	3
0	5215	1804.759884475853	2
0	5222	1808.304515653359	3
0	5224	1809.305996825098	4
0	5225	1810.066996913785	3
0	5230	1810.298472245108	2
0	5236	1814.014845244592	1
0	5242	1815.589525309391	2
0	5244	1816.322217289889	1
0	5252	1818.783822279664	2
0	5253	1818.891513621769	1
0	5258	1819.55182982039	0
0	5266	1822.518499074462	1
0	5268	1824.303267839799	2
0	5271	1825.241881261552	1
0	5276	1826.615401395412	0
0	5282	1827.307095750881	1
0	5284	1827.368589870306	2
0	5289	1835.810750758149	1
0	5300	1841.923582574952	2
0	5304	1843.765548135835	3
0	5305	1844.512980127161	2
0	5311	1844.834460188805	3
0	5316	1848.71831618691	2
0	5322	1849.694399923041	3
0	5324	1850.391580089701	4
0	5325	1850.734783441955	3
0	5333	1851.183606937083	4
0	5334	1851.197639590635	3
0	5343	1854.761081551983	4
0	5347	1856.604705606608	5
0	5350	1857.520396729814	6
0	5353	1858.973655155456	7
0	5354	1860.695280132844	6
0	5360	1860.974674915386	7
0	5362	1861.990599535642	6
0	5369	1862.292059780563	5
0	5374	1866.661949848283	4
0	5382	1871.389333854959	5
0	5383	1874.898134913981	4
0	5394	1876.444732206168	3
0	5402	1877.904655605242	2
0	5407	1878.655756053607	1
0	5413	1879.67093732461	0
0	5419	1880.435851270359	1
0	5424	1882.308049179181	0
0	5430	1883.514477452087	1
0	5432	1883.86309668167	2
0	5433	1884.518820579934	1
0	5438	1885.350468878541	0
0	5442	1885.833248959218	1
0	5446	1887.715060386096	2
0	5447	1889.657935193167	1
0	5454	1892.584201505853	0
0	5458	1893.313086469307	1
0	5462	1896.677046877558	2
0	5465	1897.168451455208	3
0	5469	1900.541199663224	2
0	5474	1900.805557439456	1
0	5480	1901.967163437866	2
0	5486	1906.44082187817	3
0	5490	1912.157922734755	4
0	5491	1913.130911998337	3
0	5498	1913.479879953778	2
0	5506	1914.612838933136	1
0	5511	1914.72578451935	0
0	5535	1920.49244657449	1
0	5536	1920.917533877263	0
0	5562	1926.705057927103	1
0	5563	1928.540160618371	0
0	5569	1929.567155672709	1
0	5570	1929.879232277535	0
0	5584	1931.640216049784	1
0	5587	1934.063556076313	2
0	5588	1934.742069232367	1
0	5594	1936.794128336452	0
0	5601	1938.811649143116	1
0	5603	1939.236570867559	2
0	5604	1940.328682783777	1
0	5610	1943.799136395907	0
0	5622	1947.343316896566	1
0	5623	1948.314024036858	0
0	5637	1957.365643556046	1
0	5640	1960.519408845993	0
0	5646	1963.022420116525	1
0	5648	1964.195832107498	0
0	5662	1966.925048970117	1
0	5663	1968.397682074256	0
0	5681	1977.019149887481	1
0	5683	1981.995839589273	2
0	5685	1982.74737023963	3
0	5688	1983.245670449523	2
0	5693	1985.100004813171	1
0	5699	1985.674886816562	0
0	5726	1994.417807672879	1
0	5727	1995.961633587654	0
0	5734	1996.956922137555	1
0	5743	2003.095709430888	0
0	5750	2003.616754916785	1
0	5753	2004.943209332766	2
0	5755	2005.76009678944	3
0	5758	2008.341768615166	2
0	5766	2008.818201606368	3
0	5767	2009.857984425075	2
0	5772	2009.963093860442	1
0	5777	2011.296872594795	0
0	5798	2014.566248171859	1
0	5800	2015.994763225362	2
0	5801	2016.099798175552	1
0	5808	2018.878355448456	0
0	5840	2036.099287499552	1
0	5841	2038.31090593838	0
0	5850	2039.857128697355	1
0	5851	2043.196963694877	0
0	5860	2044.76437043787	1
0	5861	2045.161524500719	0
0	5870	2046.144128203758	1
0	5872	2048.989838869354	2
0	5879	2053.175540424626	1
0	5884	2053.729917906045	0
0	5890	2055.193973718266	1
0	5892	2055.36614048552	2
0	5896	2056.835176585786	3
0	5899	2058.101928960555	2
0	5904	2058.298230609357	1
0	5914	2059.748524325707	0
0	5933	2067.918018053658	1
0	5934	2068.657689070315	0
0	5943	2070.920828734377	1
0	5947	2071.908939100152	2
0	5952	2075.027384587178	1
0	5961	2077.961036292194	2
0	5964	2079.936036290088	1
0	5973	2081.314904076647	0
0	5993	2087.542837337138	1
0	5996	2088.207499269406	0
0	6015	2096.481580962976	1
0	6016	2097.18619854946	0
0	6026	2099.116537557091	1
0	6028	2099.56279452813	2
0	6032	2101.887835844936	3
0	6034	2102.014767694262	4
0	6036	2103.817944453145	5
0	6037	2105.393889913183	4
0	6043	2106.89028260782	3
0	6050	2110.190192583816	4
0	6052	2112.368407983908	3
0	6057	2112.485342852831	2
0	6066	2114.009490934723	3
0	6068	2114.167139004308	4
0	6069	2114.464127072783	3
0	6074	2115.244649872096	2
0	6081	2117.302889836235	1
0	6087	2118.030228843658	0
0	6120	2128.419788656352	1
0	6121	2128.807247039262	0
0	6127	2129.115288925123	1
0	6132	2131.025639629118	0
0	6150	2135.372236529032	1
0	6151	2138.077796799172	0
0	6160	2140.847336946343	1
0	6166	2143.42571949037	0
0	6173	2144.978025946927	1
0	6174	2147.416199992422	0
0	6180	2147.500974678915	1
0	6183	2148.75366048572	0
0	6194	2155.700694816157	1
0	6198	2160.193583108571	2
0	6203	2162.202033743406	1
0	6209	2163.586942121509	2
0	6211	2165.504671580481	1
0	6216	2166.037809119852	0
0	6240	2176.967742615166	1
0	6241	2177.311209534801	0
0	6250	2179.212473548978	1
0	6254	2180.072207977945	0
0	6263	2181.594162641881	1
0	6268	2188.921893389892	2
0	6269	2189.503920347472	1
0	6274	2189.515374866292	0
0	6283	2191.870636254092	1
0	6285	2192.091579051223	2
0	6290	2193.739950972204	3
0	6292	2195.245637486749	2
0	6297	2195.281684958426	1
0	6303	2195.910978988562	2
0	6308	2197.908672589384	3
0	6309	2198.482029222799	2
0	6314	2198.982568502484	1
0	6321	2200.189436629943	0
0	6340	2213.870657792722	1
0	6344	2214.305813825423	2
0	6349	2216.558943700079	1
0	6356	2218.48192711919	0
0	6363	2218.751337883581	1
0	6364	2220.59697730237	0
0	6381	2224.059913816335	1
0	6383	2225.183127553129	2
0	6385	2226.825080857285	3
0	6387	2227.591546600597	4
0	6390	2228.499015504043	3
0	6395	2229.027791694044	2
0	6401	2230.49226744788	1
0	6406	2232.13724865823	0
0	6412	2232.603823243219	1
0	6413	2233.561707896243	0
0	6431	2242.214737154233	1
0	6432	2243.589311185644	0
0	6443	2246.858400369543	1
0	6451	2252.791246435357	0
0	6470	2255.735074195578	1
0	6471	2258.213834206607	0
0	6483	2258.652396435082	1
0	6485	2261.298896136377	0
0	6500	2263.666329186568	1
0	6501	2265.365698368213	0
0	6525	2274.134255024106	1
0	6527	2274.816436060829	2
0	6528	2276.555128505937	1
0	6535	2280.340317687272	2
0	6537	2282.44322472169	3
0	6538	2282.616977576354	2
0	6544	2283.921308597203	1
0	6552	2286.85528919056	2
0	6554	2287.259817638747	3
0	6555	2289.138242765896	2
0	6560	2289.21033630937	1
0	6569	2291.532701414935	2
0	6571	2294.911603726048	1
0	6577	2295.03164779537	2
0	6581	2296.332522524292	3
0	6584	2297.931548555542	2
0	6590	2298.05480826383	3
0	6593	2303.361839826318	4
0	6596	2306.980514742367	3
0	6602	2307.076059205889	4
0	6605	2307.836817234277	5
0	6607	2308.338557917907	6
0	6609	2310.647245038773	7
0	6611	2313.184208463248	8
0	6612	2314.63253778686	7
0	6618	2317.932150442389	6
0	6624	2317.954305714011	7
0	6626	2318.123004382873	8
0	6629	2319.226842448819	7
0	6637	2322.151933085611	6
0	6642	2322.197815075909	5
0	6647	2323.365028281579	4
0	6653	2324.067278730606	5
0	6654	2329.156114983476	4
0	6659	2329.284168854035	3
0	6664	2332.300485079469	2
0	6669	2333.327952104712	1
0	6675	2336.090216698237	0
0	6697	2339.866155064795	1
0	6699	2343.78546156296	2
0	6700	2343.975738570217	1
0	6707	2345.913457847606	2
0	6709	2346.833954076294	3
0	6714	2350.539173562598	4
0	6715	2350.900649506072	3
0	6720	2354.959198255159	2
0	6726	2356.248394724078	3
0	6727	2356.873507627433	2
0	6737	2359.071458157596	1
0	6744	2359.681693298518	2
0	6745	2359.916432086935	1
0	6751	2360.253520052458	2
0	6752	2360.631925829122	1
0	6757	2361.66217614292	0
0	6792	2371.347082957383	1
0	6793	2371.404917845308	0
0	6800	2376.189852364333	1
0	6801	2377.154016370565	0
0	6810	2378.222530168916	1
0	6816	2378.9680800799	2
0	6817	2379.136767108852	1
0	6826	2379.703309355639	0
0	6844	2381.820170069922	1
0	6846	2382.764500030201	2
0	6852	2389.119339686878	3
0	6853	2389.895988699432	2
0	6859	2390.622429025565	1
0	6866	2391.581185147885	0
0	6878	2395.177254634101	1
0	6879	2395.360063928253	0
0	6891	2398.771164560176	1
0	6892	2399.401132710371	0
0	6925	2412.248778112413	1
0	6927	2414.64299504658	2
0	6928	2415.778992479175	1
0	6934	2416.369225667704	0
0	6950	2419.498205406309	1
0	6951	2419.59890665088	0
0	6963	2423.628231976344	1
0	6964	2423.712916759049	0
0	7011	2451.226173049683	1
0	7013	2452.435625850451	2
0	7016	2452.800471123952	1
0	7021	2453.943165431566	0
0	7040	2462.662409391155	1
0	7043	2463.221798322856	0
0	7055	2465.300320436146	1
0	7056	2465.748564848729	0
0	7071	2473.505538603073	1
0	7073	2479.480621374248	2
0	7074	2481.183955478708	1
0	7079	2481.191619536677	0
0	7093	2482.792892026957	1
0	7094	2483.321349573519	0
0	7102	2483.816976381805	1
0	7105	2485.354134673842	2
0	7107	2487.173130884158	1
0	7116	2491.043321724043	0
0	7131	2497.252066904122	1
0	7132	2499.25969034597	0
0	7146	2503.171461792504	1
0	7148	2504.188213386737	2
0	7151	2508.088866334973	1
0	7158	2508.86308035269	0
0	7164	2509.236928787283	1
0	7165	2509.818404278783	0
0	7192	2519.898005452691	1
0	7194	2520.477283558195	2
0	7195	2521.977891257618	1
0	7203	2525.712588537416	0
0	7232	2539.026197013922	1
0	7234	2539.871801966345	2
0	7236	2540.941546853576	3
0	7237	2542.412863115491	2
0	7244	2542.914176425981	3
0	7246	2548.149763136269	4
0	7248	2550.220994277529	5
0	7249	2551.007564170586	4
0	7255	2552.016303881409	3
0	7262	2552.743178602609	4
0	7263	2554.001353833699	3
0	7268	2555.863413226129	2
0	7278	2558.289717786777	3
0	7279	2558.729179063103	2
0	7285	2558.941954961476	3
0	7291	2563.965703077567	2
0	7297	2566.060028173965	1
0	7307	2569.225627346327	0
0	7321	2569.512459507298	1
0	7323	2571.211806331508	2
0	7325	2572.793258484606	3
0	7330	2576.79153365113	2
0	7337	2577.936610582051	1
0	7343	2578.213015896991	2
0	7345	2579.108152097815	3
0	7347	2580.205918202798	2
0	7352	2580.777822439424	1
0	7362	2585.069941605851	0
0	7403	2600.771933187526	1
0	7405	2601.09873610846	2
0	7407	2601.81883659238	3
0	7412	2607.698783765922	2
0	7417	2608.145430728866	1
0	7422	2608.301557984799	0
0	7443	2614.835954478895	1
0	7445	2616.384415961628	0
0	7480	2628.779929628072	1
0	7481	2629.425892688234	0
0	7498	2634.454292882629	1
0	7499	2635.325770599006	0
0	7505	2635.547987963975	1
0	7506	2635.651591437861	0
0	7514	2639.623705976256	1
0	7515	2640.230579937317	0
0	7521	2640.411105737649	1
0	7523	2640.722824187311	2
0	7525	2642.157040020102	3
0	7526	2642.779265931986	2
0	7534	2644.411443733892	3
0	7538	2644.955775381827	4
0	7539	2646.737033238584	3
0	7546	2648.449497915821	2
0	7552	2650.705487833328	3
0	7553	2652.253153571774	2
0	7567	2655.80166881649	1
0	7572	2656.30421181332	0
0	7600	2665.893835943265	1
0	7603	2667.434598526064	0
0	7613	2674.656685306541	1
0	7616	2676.112894142291	0
0	7631	2679.765938503129	1
0	7633	2680.253973908472	2
0	7635	2682.053346550937	3
0	7636	2683.986627662382	2
0	7642	2684.083084809344	3
0	7644	2686.074642819372	2
0	7655	2692.125599296857	3
0	7658	2694.905739131215	2
0	7666	2697.170584045554	1
0	7672	2697.56274287943	2
0	7675	2698.002425867375	3
0	7676	2699.064906064382	2
0	7681	2700.402939672651	1
0	7688	2700.569419239465	2
0	7689	2700.585520482497	1
0	7695	2701.624666568385	0
0	7701	2701.789710280871	1
0	7703	2701.980678989698	0
0	7711	2702.75675998849	1
0	7714	2703.372513354338	2
0	7716	2704.358618343188	1
0	7721	2704.795424912668	0
0	7749	2710.542267770908	1
0	7753	2711.882064142593	2
0	7754	2713.799349830163	1
0	7763	2715.039923369755	2
0	7764	2716.760789847998	1
0	7769	2719.106419377122	0
0	7781	2723.008139029282	1
0	7785	2723.96181691881	0
0	7791	2724.918836163315	1
0	7796	2726.846627654921	0
0	7802	2727.402898900971	1
0	7811	2733.47803787696	2
0	7813	2733.953673867302	3
0	7814	2734.515526339238	2
0	7821	2735.120723181454	3
0	7822	2735.239108697056	2
0	7831	2739.203508612561	3
0	7832	2739.736683523907	2
0	7837	2742.646137468852	1
0	7844	2743.991993909399	0
0	7852	2746.402570559342	1
0	7853	2748.031174412756	0
0	7861	2748.587933827737	1
0	7862	2748.68083088834	0
0	7882	2753.561699047001	1
0	7885	2757.200705034591	0
0	7891	2757.745340927049	1
0	7893	2758.007165511046	2
0	7897	2760.322496220499	3
0	7898	2761.179071598936	2
0	7904	2761.334638719279	3
0	7906	2763.678487789898	4
0	7909	2768.322536103965	3
0	7913	2770.222097899708	4
0	7919	2776.081723084567	5
0	7921	2777.16387067507	4
0	7929	2780.517148607521	5
0	7930	2781.239804492267	4
0	7936	2781.864231672868	5
0	7939	2785.125128464869	4
0	7944	2787.103971360703	3
0	7950	2790.203340186986	4
0	7954	2790.744105518716	5
0	7960	2793.791541700569	4
0	7966	2795.756795135211	3
0	7973	2797.071100077344	2
0	7978	2797.272238710368	1
0	7984	2797.973190385336	2
0	7986	2799.593779220703	3
0	7993	2803.305331666858	2
0	7999	2805.98346063508	1
0	8007	2808.313248055654	0
0	8032	2815.785128318209	1
0	8034	2815.799820021176	2
0	8035	2816.994419647764	1
0	8043	2818.945153827221	2
0	8045	2820.180143468256	3
0	8048	2821.375096011701	2
0	8055	2823.476086798507	1
0	8060	2823.835271735302	0
0	8067	2824.461992936679	1
0	8068	2824.713390117984	0
0	8082	2827.340262906424	1
0	8083	2828.714368367957	0
0	8090	2829.363770539955	1
0	8092	2829.412338401529	2
0	8095	2830.548603874436	3
0	8099	2834.262941725148	4
0	8100	2835.015283751823	3
0	8105	2836.590324766965	2
0	8116	2839.617384406647	1
0	8121	2839.78128274294	0
0	8134	2842.451172618896	1
0	8140	2844.178156659038	0
0	8149	2844.744052584246	1
0	8151	2844.803778088452	2
0	8154	2844.838209756252	1
0	8159	2847.146703377863	0
0	8176	2854.865864339629	1
0	8178	2855.271734945414	0
0	8184	2855.290386573847	1
0	8188	2856.467756778036	0
0	8208	2865.184118934432	1
0	8210	2867.010438978908	2
0	8212	2868.266848957373	3
0	8216	2870.187593439633	4
0	8218	2871.543992237234	5
0	8221	2876.163614756534	4
0	8227	2877.061469243848	5
0	8229	2882.094197257968	4
0	8237	2885.065432731036	5
0	8241	2886.02792322284	6
0	8242	2886.098913652428	5
0	8249	2887.846769313462	4
0	8254	2889.544589661314	3
0	8263	2891.025153321276	2
0	8274	2895.469343541691	1
0	8280	2897.760564590518	0
0	8291	2899.994586420261	1
0	8295	2901.448727305691	0
0	8301	2901.719424954665	1
0	8303	2902.956622978613	0
0	8332	2914.262113821975	1
0	8335	2914.473724491165	0
0	8348	2915.549243177349	1
0	8349	2915.969542663608	0
0	8369	2925.04511762818	1
0	8375	2929.391032019844	2
0	8376	2930.200408889062	1
0	8381	2930.870323460194	0
0	8396	2932.657115253214	1
0	8398	2934.894730880845	2
0	8402	2935.697463651455	1
0	8409	2937.000298875288	2
0	8411	2938.435974995772	3
0	8415	2942.831255803645	4
0	8416	2943.300163717957	3
0	8422	2943.355204017973	4
0	8423	2943.771025543982	3
0	8429	2945.672454506326	2
0	8435	2948.334334148636	3
0	8437	2949.078349023347	2
0	8442	2951.461702396452	1
0	8446	2951.519587059575	2
0	8449	2952.014067857958	1
0	8457	2952.717248935191	2
0	8459	2954.16668532193	1
0	8465	2955.502863960689	0
0	8484	2957.69866421502	1
0	8486	2957.844270413748	2
0	8488	2958.202820414713	1
0	8493	2958.403502002036	0
0	8499	2958.506009330366	1
0	8501	2959.290698386916	2
0	8503	2961.360239451703	1
0	8513	2962.195534962383	0
0	8519	2962.940439857661	1
0	8520	2962.976662934914	0
0	8524	2964.503427667127	1
0	8526	2965.949778907204	2
0	8536	2969.481204551176	3
0	8537	2969.713238265276	2
0	8543	2970.283892082255	3
0	8545	2972.44834087561	4
0	8549	2973.44612133146	5
0	8552	2978.922758675685	4
0	8557	2980.310416547696	3
0	8565	2982.046617230108	4
0	8567	2984.159872288243	3
0	8581	2991.797580853155	2
0	8590	2997.083407158011	1
0	8596	2997.244379741051	2
0	8598	2998.158204371856	1
0	8604	2998.180140567252	2
0	8605	2999.792401153248	1
0	8611	3002.112914310956	0
0	8633	3004.261209431726	1
0	8637	3005.933984233446	0
0	8659	3016.641217553786	1
0	8660	3017.143922324118	0
0	8686	3021.969916615403	1
0	8688	3022.555575298703	2
0	8690	3024.441607299459	3
0	8692	3027.407373147327	4
0	8695	3030.769612342311	3
0	8702	3031.020937077702	2
0	8710	3032.753221765928	1
0	8716	3033.149466710656	0
0	8720	3033.487602231911	1
0	8724	3035.952175221823	0
0	8766	3054.013497424437	1
0	8770	3055.598220634586	2
0	8771	3056.213573822214	1
0	8776	3056.78195291414	0
0	8788	3058.421743088985	1
0	8790	3059.077727354222	0
0	8796	3059.549315335898	1
0	8798	3059.758697279792	2
0	8800	3060.809988305213	3
0	8801	3061.169237476604	2
0	8809	3066.626554406498	1
0	8816	3069.543515321033	2
0	8818	3070.966674694132	1
0	8823	3071.8668967162	0
0	8829	3072.480420700601	1
0	8831	3073.209125116768	0
0	8837	3073.266291982066	1
0	8838	3073.477476024287	0
0	8842	3075.00828036196	1
0	8849	3078.227713384348	0
0	8856	3078.821763914693	1
0	8858	3079.073569189174	2
0	8861	3079.391815933427	1
0	8870	3083.282093730452	0
0	8877	3083.666088663127	1
0	8878	3083.854775336342	0
0	8919	3097.465878117842	1
0	8925	3099.3704788038	2
0	8927	3101.493245610608	1
0	8934	3104.217265003062	2
0	8936	3104.643110625739	3
0	8939	3105.442927928734	2
0	8945	3105.909963681908	1
0	8952	3107.631758354235	0
0	8983	3119.476759471416	1
0	8986	3120.251046851306	0
0	8992	3121.183322046543	1
0	8994	3121.23353654834	2
0	9000	3123.665572778922	3
0	9003	3128.552713533395	2
0	9013	3132.3382175176	1
0	9018	3132.841801119084	0
0	9034	3137.684519615433	1
0	9038	3138.840545921546	2
0	9040	3139.792501926774	3
0	9044	3144.720064669684	4
0	9052	3146.078294027194	5
0	9053	3146.170511659608	4
0	9060	3149.78595835332	3
0	9068	3149.898447482855	4
0	9070	3150.16525062777	3
0	9075	3150.308757293573	2
0	9082	3153.436220070199	1
0	9087	3157.464642386384	0
0	9091	3157.897456191519	1
0	9094	3158.702901096255	0
0	9098	3159.800348525249	1
0	9100	3161.522005061003	2
0	9108	3163.528065394744	1
0	9113	3163.548724296948	0
0	9125	3166.699202606676	1
0	9127	3168.578281615474	0
0	9158	3176.764862322614	1
0	9160	3176.952825699169	2
0	9164	3179.37106576098	3
0	9167	3181.949161936781	2
0	9177	3182.951471637973	3
0	9179	3185.421576823991	4
0	9180	3185.925834414822	3
0	9190	3186.981553149845	2
0	9197	3187.749163209155	3
0	9198	3189.442328301296	2
0	9203	3190.102667382142	1
0	9209	3190.390331301746	0
0	9220	3195.199971873082	1
0	9221	3196.008131721713	0
0	9242	3204.989008132806	1
0	9243	3205.104067601404	0
0	9258	3208.408671261704	1
0	9260	3209.442205385792	2
0	9264	3214.587761408605	3
0	9265	3218.069266724768	2
0	9270	3218.277111305463	1
0	9284	3220.733174473737	0
0	9307	3229.339015199301	1
0	9311	3229.828418265859	2
0	9320	3236.009307466584	1
0	9326	3237.752570349884	0
0	9337	3238.692732198163	1
0	9345	3240.076084954769	2
0	9346	3240.424350974381	1
0	9351	3240.949307779836	0
0	9367	3244.658167342917	1
0	9370	3245.606969778529	0
0	9380	3248.310773481591	1
0	9382	3249.234324951389	2
0	9389	3250.661168282717	3
0	9391	3252.968405568557	4
0	9393	3254.235237560997	5
0	9395	3255.79926330656	6
0	9397	3257.341824952742	7
0	9399	3257.358115294953	8
0	9401	3257.373547475024	9
0	9402	3257.437592964484	8
0	9413	3258.102887967382	9
0	9416	3260.095077308406	8
0	9423	3260.837434880422	7
0	9428	3261.243053911395	6
0	9433	3261.579717190822	5
0	9440	3262.650317597797	4
0	9447	3264.621641736144	3
0	9457	3267.191562230823	4
0	9461	3269.650525321819	5
0	9463	3270.38224709098	4
0	9468	3271.886125994109	3
0	9473	3272.967952850689	2
0	9478	3274.562371844781	1
0	9483	3275.828442077106	0
0	9515	3286.370898554565	1
0	9516	3289.876438641367	0
0	9531	3293.642610940437	1
0	9533	3293.951954223411	2
0	9537	3297.769381003283	3
0	9538	3299.812643487464	2
0	9544	3300.18766712222	3
0	9545	3300.482848680311	2
0	9552	3301.311722060476	3
0	9556	3301.912289736066	4
0	9558	3303.302144680504	3
0	9565	3305.185492834542	2
0	9570	3307.201820075296	1
0	9576	3309.582173316694	2
0	9581	3311.623942080648	1
0	9592	3313.37409420809	0
0	9639	3335.432102624773	1
0	9641	3335.710178286206	2
0	9644	3336.646930627539	1
0	9650	3336.732715108581	2
0	9652	3336.99856462542	3
0	9653	3337.072766617103	2
0	9659	3339.935949080492	1
0	9665	3340.662984671894	2
0	9666	3340.700945662714	1
0	9673	3343.113751696227	0
0	9689	3347.119686513771	1
0	9691	3349.292529839558	0
0	9705	3352.763375360034	1
0	9714	3356.66529882983	2
0	9716	3360.036194113135	1
0	9721	3360.543024026191	0
0	9727	3360.775566243703	1
0	9732	3361.420702184843	0
0	9741	3364.899833708543	1
0	9743	3365.140104172631	2
0	9749	3368.027243419959	1
0	9755	3372.061379388249	0
0	9762	3374.811394651781	1
0	9764	3376.023332043085	0
0	9770	3376.684848398703	1
0	9771	3376.773764298675	0
0	9795	3381.237406258424	1
0	9797	3381.817735799048	2
0	9799	3382.469032796207	3
0	9800	3383.130645002061	2
0	9805	3383.306995911262	1
0	9810	3384.046070870779	0
0	9816	3385.206193913785	1
0	9817	3385.609103794	0
0	9821	3386.951017937152	1
0	9824	3388.501559482727	0
0	9832	3390.395188369129	1
0	9833	3390.847442305682	0
0	9867	3398.7778015867	1
0	9870	3401.786193285867	0
0	9879	3403.325095667804	1
0	9881	3403.414451902791	2
0	9883	3403.850950527643	3
0	9885	3404.018989446359	4
0	9890	3407.377810026532	5
0	9891	3407.65199670109	4
0	9899	3415.844605787253	3
0	9906	3417.364929314352	2
0	9911	3417.946931633242	1
0	9916	3418.842630153229	0
0	9924	3421.292751583064	1
0	9926	3422.09491316433	0
0	9937	3425.301945108297	1
0	9945	3427.206757501496	2
0	9947	3428.142395676711	1
0	9952	3428.505484048174	0
0	9958	3428.836700246653	1
0	9961	3429.952139277066	0
0	9967	3431.249381378055	1
0	9972	3432.191345179886	2
0	9973	3434.01507583287	1
0	9979	3434.588224752199	2
0	9980	3434.623116400104	1
0	9985	3434.72112421882	0
0	10036	3454.75016164021	1
0	10037	3454.810549063668	0
0	10044	3456.24772776198	1
0	10046	3458.983480178755	2
0	10047	3463.386709047523	1
0	10057	3468.407559386069	2
0	10058	3472.129920662258	1
0	10068	3473.431022869445	2
0	10069	3474.272647228678	1
0	10074	3474.320919764472	0
0	10094	3479.793389270942	1
0	10096	3481.49231868458	2
0	10097	3482.606631626638	1
0	10102	3484.917580543079	0
0	10127	3495.167484648191	1
0	10128	3496.033873253467	0
0	10134	3497.382074317234	1
0	10137	3498.547533320199	0
0	10143	3498.999994815272	1
0	10151	3502.840846224796	2
0	10153	3503.046826917191	3
0	10154	3504.019435162615	2
0	10164	3509.418467448924	1
0	10169	3509.575443778373	0
0	10181	3513.772578194998	1
0	10185	3515.770341861951	2
0	10186	3516.391638951533	1
0	10192	3516.750937929338	2
0	10193	3516.847874368955	1
0	10203	3520.286318856463	0
0	10209	3522.342125020168	1
0	10210	3522.992246905908	0
0	10216	3523.92644912485	1
0	10217	3524.423414617784	0
0	10240	3533.100307778111	1
0	10243	3535.799147912868	0
0	10275	3540.257889028194	1
0	10277	3542.755748983137	2
0	10279	3542.88095540624	3
0	10280	3543.459405257312	2
0	10286	3543.91497433407	3
0	10287	3544.206006403363	2
0	10294	3551.446485073535	1
0	10300	3551.608111342336	2
0	10301	3552.18822636403	1
0	10306	3552.609145625375	0
0	10319	3553.701550101089	1
0	10322	3554.142182257742	0
0	10329	3555.591805860904	1
0	10330	3555.766263170491	0
0	10334	3559.807645695563	1
0	10336	3562.056048632088	2
0	10340	3563.850578308135	1
0	10346	3568.479945294971	0
0	10359	3569.95995247022	1
0	10360	3570.012699371708	0
0	10390	3583.879006545457	1
0	10391	3583.900027284613	0
0	10398	3585.350600972865	1
0	10399	3589.76557964532	0
0	10425	3601.908839795841	1
0	10426	3602.316814088482	0
0	10435	3603.913995036152	1
0	10439	3605.428450207416	0
0	10457	3611.890329457059	1
0	10460	3617.071460366221	0
0	10477	3622.171997504382	1
0	10480	3624.263595524313	0
0	10495	3627.324102273165	1
0	10497	3628.799329472118	2
0	10504	3632.507923135975	1
0	10510	3632.714098931946	2
0	10517	3640.508328475852	3
0	10518	3640.99506793523	2
0	10524	3641.534690499947	3
0	10525	3642.028956824263	2
0	10531	3643.877212347048	3
0	10532	3644.79138206097	2
0	10537	3646.15134719763	1
0	10541	3646.155513956632	2
0	10544	3647.510854582617	1
0	10549	3648.795862332835	0
0	10562	3651.956980962476	1
0	10563	3652.467184600327	0
0	10584	3658.012568318639	1
0	10590	3659.838265180566	0
0	10597	3660.61978402668	1
0	10598	3661.429340377638	0
0	10617	3666.783905971185	1
0	10618	3667.032904494825	0
0	10628	3667.942943909695	1
0	10631	3668.709148814604	0
0	10637	3668.794621592221	1
0	10641	3669.320036814222	2
0	10643	3669.436238163024	3
0	10645	3670.752485697918	2
0	10652	3672.311692195014	1
0	10659	3673.810622118116	0
0	10694	3684.521309860446	1
0	10696	3685.642849202609	2
0	10700	3687.92716577573	1
0	10705	3688.409638422832	0
0	10711	3689.113312755979	1
0	10712	3689.212089465792	0
0	10720	3689.312112329104	1
0	10721	3689.729316874018	0
0	10745	3710.090515947844	1
0	10746	3710.54123618356	0
0	10758	3712.193072908879	1
0	10759	3713.097318785361	0
0	10800	3726.454437007234	1
0	10802	3728.12658572037	2
0	10803	3728.949760678684	1
0	10808	3728.994651565703	0
0	10815	3730.929275091253	1
0	10817	3732.594063727244	2
0	10818	3734.760980506178	1
0	10825	3736.316692166849	2
0	10829	3739.354879921634	3
0	10831	3742.78364826753	4
0	10832	3743.257004550401	3
0	10841	3746.855536883275	4
0	10845	3747.742837642215	5
0	10846	3750.358776407812	4
0	10852	3750.539055243448	5
0	10855	3751.129875514831	6
0	10856	3751.137601431485	5
0	10862	3751.339193240245	6
0	10864	3751.45205783953	7
0	10865	3751.544360548466	6
0	10875	3754.291636122213	5
0	10883	3756.886821204282	6
0	10887	3759.790375184707	5
0	10894	3761.442715696609	6
0	10895	3762.482511777059	5
0	10901	3763.220547053641	4
0	10911	3768.553386187226	5
0	10913	3768.568841557184	6
0	10914	3770.525282189226	5
0	10920	3771.511925608972	6
0	10921	3775.098599136489	5
0	10926	3776.017022805427	4
0	10933	3777.351165015101	5
0	10934	3779.425558514721	4
0	10940	3779.450145403289	5
0	10944	3781.745371461847	6
0	10946	3783.660642716087	7
0	10947	3785.100567982357	6
0	10952	3785.435633834094	5
0	10957	3785.828582369981	4
0	10966	3790.666050151163	3
0	10972	3791.181781509515	2
0	10979	3792.067152813679	1
0	10984	3792.464556922442	0
0	10990	3792.695867573237	1
0	10991	3793.830466787326	0
0	10997	3795.487506524712	1
0	11004	3796.69745170603	0
0	11015	3796.98059436403	1
0	11017	3799.439327306416	0
0	11044	3805.999470619178	1
0	11046	3809.074727992541	2
0	11047	3809.156045863939	1
0	11053	3811.694109226919	0
0	11062	3813.387436713356	1
0	11064	3814.814841343139	2
0	11065	3815.007091306345	1
0	11072	3815.624705686025	2
0	11073	3815.970323853918	1
0	11078	3816.345293279306	0
0	11092	3818.335734951252	1
0	11093	3819.583883640065	0
0	11120	3835.197758194158	1
0	11122	3835.350110815629	2
0	11127	3839.522222966146	1
0	11135	3840.950391220065	0
0	11149	3845.16348579051	1
0	11160	3854.274036228646	2
0	11163	3855.709636816495	1
0	11168	3856.834619617205	0
0	11177	3857.318559236685	1
0	11180	3858.109613031391	0
0	11186	3858.16485828062	1
0	11193	3859.727403689365	2
0	11196	3860.706397615183	3
0	11198	3861.12701171571	4
0	11200	3862.220570381256	5
0	11201	3865.066628976337	4
0	11208	3866.136412803845	5
0	11209	3866.947654014283	4
0	11219	3868.197434918053	5
0	11221	3869.71294069349	6
0	11225	3871.270045730321	7
0	11226	3872.328918518812	6
0	11232	3872.443354093305	7
0	11235	3874.201800585385	6
0	11241	3875.555090347592	5
0	11248	3878.260807783882	6
0	11250	3879.353712128117	7
0	11253	3880.368944455034	6
0	11258	3882.208717987179	5
0	11265	3883.068204106	4
0	11273	3885.966262278972	3
0	11278	3888.677962810462	2
0	11283	3888.854301490494	1
0	11289	3889.38298559547	2
0	11292	3892.275148933971	1
0	11297	3892.855580992612	0
0	11308	3896.05774681672	1
0	11311	3898.929559649191	0
0	11331	3902.583334449901	1
0	11332	3902.782677224401	0
0	11344	3906.34446318813	1
0	11346	3907.455967442477	2
0	11349	3907.849353289624	1
0	11354	3908.507102153774	0
0	11358	3910.718142331231	1
0	11360	3914.85369552248	2
0	11366	3916.65329025884	1
0	11379	3921.372602211338	2
0	11383	3922.334788642778	3
0	11384	3922.946474940887	2
0	11391	3923.673896917083	3
0	11395	3928.430179223461	4
0	11398	3932.30460880404	3
0	11405	3932.845166532548	4
0	11407	3933.311068845461	5
0	11410	3935.217667937763	6
0	11411	3938.031460059162	5
0	11417	3942.140570333461	4
0	11422	3943.389091025409	3
0	11430	3944.516225253995	4
0	11431	3944.687206533899	3
0	11439	3946.834118369835	4
0	11443	3948.014505788087	3
0	11449	3949.733211530673	4
0	11453	3952.591933944311	3
0	11458	3954.221952250733	2
0	11464	3955.3461371214	1
0	11470	3956.123427429168	2
0	11471	3956.830286357655	1
0	11476	3958.278476481878	0
0	11500	3967.497375867741	1
0	11504	3970.736353161251	2
0	11506	3971.346486734542	3
0	11507	3975.396446541682	2
0	11513	3975.99816854441	3
0	11515	3976.550974225388	2
0	11520	3976.866063373785	1
0	11525	3977.020607190046	0
0	11546	3985.062640077369	1
0	11550	3986.169423833068	0
0	11556	3986.300394372302	1
0	11558	3986.402195296881	2
0	11560	3988.039820784663	3
0	11561	3988.315441001686	2
0	11567	3988.760147718439	3
0	11571	3991.37754398389	4
0	11573	3991.610293185348	5
0	11579	3992.061446393645	6
0	11580	3992.705228671222	5
0	11588	3995.30163658004	6
0	11590	3995.821059652136	7
0	11594	3997.832770887164	6
0	11601	3998.400970197156	7
0	11602	3998.963555742366	6
0	11608	4001.924318637726	5
0	11613	4003.090505107579	4
0	11624	4006.438743380266	3
0	11629	4006.880663187994	2
0	11636	4008.873054746966	1
0	11641	4009.290311090672	0
0	11657	4015.196083355377	1
0	11659	4015.705263441931	0
0	11676	4017.623837092582	1
0	11679	4018.677409410702	2
0	11681	4021.62907358375	1
0	11686	4022.567327233231	0
0	11723	4029.680955883811	1
0	11724	4030.208015320401	0
0	11734	4032.228405588078	1
0	11736	4032.74378493326	2
0	11740	4034.691027072374	3
0	11741	4037.993950050774	2
0	11748	4041.63147748038	1
0	11754	4042.77722414457	0
0	11765	4044.751865094396	1
0	11767	4044.82389243256	2
0	11772	4046.609834639227	3
0	11773	4047.348763828286	2
0	11779	4047.373946177812	3
0	11782	4048.906556989239	4
0	11783	4049.016400709891	3
0	11789	4049.586008606598	4
0	11790	4049.620925682052	3
0	11796	4049.762942631997	4
0	11798	4050.7408576071	5
0	11801	4052.246355420587	6
0	11803	4053.399168933786	5
0	11808	4053.499093232981	4
0	11817	4055.789420585484	5
0	11819	4057.028093305663	6
0	11821	4057.192692997101	7
0	11823	4058.751822329577	8
0	11824	4059.48815592766	7
0	11829	4059.772699685623	6
0	11834	4060.933136515369	5
0	11840	4061.152466805866	6
0	11844	4062.809084341085	7
0	11849	4065.086327235849	6
0	11854	4065.311116002507	5
0	11862	4067.520373973322	6
0	11863	4068.388293318339	5
0	11868	4069.029717073824	4
0	11876	4070.391516244942	3
0	11885	4072.99059936802	4
0	11886	4073.084073017259	3
0	11891	4074.005820166427	2
0	11901	4078.892606637745	3
0	11902	4078.970211239337	2
0	11907	4079.287655091088	1
0	11915	4083.361882768504	0
0	11932	4085.734427379013	1
0	11934	4087.165777393546	2
0	11935	4088.674550003115	1
0	11942	4089.534011207494	0
0	11966	4099.632266010795	1
0	11971	4103.915936204888	0
0	11980	4104.390047141325	1
0	11982	4105.941107729168	2
0	11986	4113.152780981148	1
0	11991	4114.805110266053	0
0	12014	4120.978637541346	1
0	12017	4123.1067359017	0
0	12037	4135.190850303423	1
0	12038	4137.437493314469	0
0	12050	4138.39298189975	1
0	12052	4138.781706633964	2
0	12054	4140.827729988506	1
0	12059	4140.871411845319	0
0	12069	4150.391055411302	1
0	12074	4162.700545914317	0
0	12088	4166.327243781503	1
0	12091	4170.08533564491	2
0	12092	4170.397944512238	1
0	12098	4173.388556274071	0
0	12122	4181.304813494418	1
0	12126	4183.006448690437	2
0	12127	4183.713517773067	1
0	12133	4184.761153226605	2
0	12136	4185.220413730347	3
0	12137	4188.678044948549	2
0	12143	4189.533086134466	1
0	12148	4190.29467799727	0
0	12154	4191.329418923739	1
0	12155	4191.421829077416	0
0	12176	4197.669010847851	1
0	12177	4198.160842050532	0
0	12185	4199.641366269101	1
0	12186	4201.230958047647	0
0	12217	4206.313752661428	1
0	12221	4213.00758968491	0
0	12228	4214.35372932598	1
0	12230	4214.392931969471	2
0	12231	4215.310480555383	1
0	12237	4217.610295060782	0
0	12243	4218.400775357083	1
0	12247	4220.220014919521	2
0	12254	4223.384060257447	1
0	12264	4224.788787574145	2
0	12265	4224.882065955709	1
0	12270	4224.976310018429	0
0	12277	4225.911835099276	1
0	12280	4227.10354263995	0
0	12286	4227.795346174158	1
0	12290	4230.684918806211	0
0	12296	4233.031535894538	1
0	12298	4233.714226136352	2
0	12299	4234.091443408815	1
0	12304	4236.222959093789	0
0	12310	4236.839721049771	1
0	12312	4238.276904400512	0
0	12332	4248.164878666449	1
0	12335	4249.58583789872	0
0	12346	4251.088970003657	1
0	12348	4251.596843834676	0
0	12386	4266.937007706036	1
0	12390	4271.679803047132	2
0	12392	4272.218056517556	3
0	12393	4273.285010035749	2
0	12398	4273.933411779444	1
0	12406	4276.509354321649	0
0	12424	4279.608204766746	1
0	12428	4285.674314485515	0
0	12434	4287.22904118958	1
0	12436	4288.679390519111	2
0	12437	4289.971500459668	1
0	12445	4290.715726348834	0
0	12454	4290.993919064044	1
0	12460	4294.534847497611	0
0	12479	4305.331539623472	1
0	12481	4310.468047120614	0
0	12500	4313.571536075451	1
0	12506	4314.697820282376	0
0	12536	4326.014703331109	1
0	12539	4329.07682995069	0
0	12570	4334.326954700855	1
0	12573	4337.043814325679	0
0	12592	4348.430644100871	1
0	12593	4348.611667490311	0
0	12610	4352.782457084533	1
0	12613	4358.340418817072	0
0	12621	4359.916610438655	1
0	12622	4361.141423733541	0
0	12646	4370.097468138577	1
0	12647	4370.901368054901	0
0	12685	4382.576080338094	1
0	12689	4387.11060769233	0
0	12718	4392.255017792635	1
0	12720	4394.042589852158	2
0	12722	4394.117864531603	3
0	12726	4394.943083807839	4
0	12727	4395.277624541428	3
0	12740	4403.155882234612	2
0	12747	4406.730461961141	3
0	12748	4407.307541511763	2
0	12753	4407.797032897599	1
0	12760	4408.510690782887	0
0	12769	4410.636480337146	1
0	12771	4411.442381942117	2
0	12772	4414.141606566988	1
0	12777	4414.148438602593	0
0	12788	4417.891609614474	1
0	12791	4421.231161335542	0
0	12802	4421.859200712851	1
0	12804	4423.078776825581	0
0	12812	4426.439015838361	1
0	12816	4428.127562933083	2
0	12818	4428.690690953822	3
0	12819	4430.069886325471	2
0	12825	4430.218398078459	3
0	12827	4432.705400003981	4
0	12828	4434.231158552831	3
0	12834	4434.278812094297	4
0	12836	4435.062874349545	5
0	12839	4435.567798346924	6
0	12843	4436.854369569001	7
0	12844	4437.479484863203	6
0	12850	4437.592837556928	7
0	12854	4442.396441290304	8
0	12855	4442.798095376585	7
0	12863	4443.630113446144	6
0	12868	4444.17890948047	5
0	12874	4444.97649966414	6
0	12875	4445.016561178557	5
0	12879	4446.883435134887	6
0	12884	4448.028404979687	7
0	12886	4448.296371106035	6
0	12891	4448.305204116682	5
0	12897	4448.972229911762	6
0	12898	4449.779083045298	5
0	12904	4450.585721704807	6
0	12906	4455.308443214048	5
0	12911	4455.521284689182	4
0	12916	4457.77431721867	3
0	12921	4459.667298981442	2
0	12930	4460.438882595959	1
0	12937	4463.39532573814	0
0	12956	4469.763343769046	1
0	12958	4471.50343080651	2
0	12961	4473.645112559981	1
0	12971	4476.449100686495	0
0	12999	4482.778113451697	1
0	13004	4486.412250226741	0
0	13010	4486.908890049622	1
0	13012	4489.565200939128	0
0	13027	4495.566532158306	1
0	13029	4495.617753078299	2
0	13033	4498.361479692642	3
0	13034	4500.615651934214	2
0	13039	4500.855052811864	1
0	13044	4502.379581310392	0
0	13051	4503.565918906567	1
0	13054	4505.437413378643	0
0	13083	4512.837056511186	1
0	13086	4514.417421215905	0
0	13101	4516.759622917866	1
0	13102	4519.027926222988	0
0	13111	4520.520649555185	1
0	13116	4525.022861095342	0
0	13124	4525.971409622217	1
0	13125	4527.415457617911	0
0	13140	4532.602097482593	1
0	13141	4533.939578718224	0
0	13158	4537.204532720595	1
0	13160	4537.228191610795	0
0	13183	4540.137001840379	1
0	13185	4542.048694655654	2
0	13191	4545.393095252904	3
0	13192	4546.193581658475	2
0	13197	4547.070532126138	1
0	13203	4548.220471550734	2
0	13208	4550.541051342992	1
0	13214	4554.639746009491	0
0	13232	4558.073118145466	1
0	13233	4558.36726835664	0
0	13245	4560.458331165421	1
0	13246	4561.142187361707	0
0	13259	4564.642163851315	1
0	13265	4566.421342804176	2
0	13267	4566.571385957421	3
0	13273	4569.418574102591	2
0	13285	4573.672716725308	3
0	13286	4574.884338079173	2
0	13292	4575.166192403427	3
0	13293	4575.523033067501	2
0	13302	4578.281278033412	3
0	13304	4579.000925586952	4
0	13307	4580.101819511239	5
0	13309	4580.254681741266	6
0	13310	4582.333154725757	5
0	13315	4582.693162420152	4
0	13320	4582.953864060775	3
0	13328	4583.343298087251	2
0	13339	4594.729141378745	3
0	13341	4596.962617125058	4
0	13342	4597.94350542494	3
0	13348	4598.937068746248	4
0	13352	4601.518971255586	3
0	13365	4606.974849941848	4
0	13366	4609.280237905146	3
0	13372	4609.779663756723	4
0	13374	4612.634442431652	3
0	13379	4612.728220169766	2
0	13386	4613.257819713431	3
0	13388	4618.196669527552	2
0	13394	4620.206356091087	1
0	13399	4620.990728801362	0
0	13405	4622.081424373018	1
0	13406	4622.594999856182	0
0	13448	4634.185405640892	1
0	13451	4635.11762577156	0
0	13459	4637.217974449372	1
0	13461	4638.954638548344	2
0	13466	4645.46935500022	1
0	13472	4646.021660063345	2
0	13473	4647.613581659256	1
0	13479	4648.81501757306	2
0	13483	4649.923468496262	1
0	13489	4650.772978585787	0
0	13501	4651.578535466536	1
0	13503	4653.595201876116	2
0	13504	4656.065678047062	1
0	13512	4661.193251424339	0
0	13518	4661.472339300641	1
0	13519	4661.923559842167	0
0	13526	4662.275130846095	1
0	13528	4664.46913460963	2
0	13529	4665.493667410261	1
0	13534	4666.413596817289	0
0	13545	4670.868962649942	1
0	13547	4670.953727101693	2
0	13548	4671.194256454873	1
0	13559	4675.305697794098	0
0	13603	4686.218344087485	1
0	13605	4686.297075311486	2
0	13606	4686.94669107564	1
0	13612	4688.374762791571	2
0	13616	4690.030108482259	1
0	13623	4690.866368846969	0
0	13641	4693.141583847315	1
0	13642	4694.107793538593	0
0	13649	4695.983904207309	1
0	13650	4696.387598589441	0
0	13663	4698.375153418207	1
0	13664	4699.218655785502	0
0	13680	4705.130626653424	1
0	13682	4705.328303296286	2
0	13683	4707.196794330052	1
0	13689	4710.309928545664	0
0	13698	4711.015620437474	1
0	13705	4711.770799738731	2
0	13707	4714.992400852372	3
0	13713	4719.583500569597	4
0	13714	4719.997195484079	3
0	13722	4722.160504294902	2
0	13729	4724.901479467566	3
0	13732	4730.483685988327	2
0	13738	4731.042582901209	3
0	13740	4732.592562721837	2
0	13745	4733.211421408752	1
0	13750	4733.319097735677	0
0	13756	4737.366645788733	1
0	13761	4740.931599314149	2
0	13762	4743.412240403817	1
0	13768	4748.374752493368	0
0	13777	4751.759835740155	1
0	13781	4754.242233621678	2
0	13786	4756.990773817453	1
0	13791	4757.119154235494	0
0	13798	4757.712017956357	1
0	13805	4763.837165688993	2
0	13806	4766.293932186462	1
0	13812	4767.098840716354	2
0	13815	4770.030346373377	1
0	13821	4772.552042311143	2
0	13824	4773.31838165354	3
0	13826	4774.729683130299	4
0	13827	4775.845735047673	3
0	13835	4779.140801014628	4
0	13836	4781.384950940559	3
0	13843	4786.813482084152	4
0	13848	4792.683083281839	3
0	13853	4792.98114851028	2
0	13858	4793.427361455629	1
0	13867	4795.995786535795	2
0	13869	4798.099439607724	3
0	13870	4798.53141392262	2
0	13876	4800.233313856093	1
0	13882	4802.323135367182	0
0	13888	4802.665658161581	1
0	13892	4807.733798067312	2
0	13895	4810.503974983822	1
0	13902	4810.962623149743	0
0	13942	4819.802139212536	1
0	13944	4820.626609398241	2
0	13945	4820.96770031964	1
0	13951	4823.773412555078	0
0	13968	4825.884961580088	1
0	13976	4829.228666056174	2
0	13980	4831.422848390145	3
0	13982	4832.022163144991	4
0	13983	4833.046248721131	3
0	13992	4837.127793607599	2
0	13999	4841.626088868424	1
0	14008	4845.547973686744	2
0	14009	4845.856927444458	1
0	14014	4846.430018152948	0
0	14027	4852.141065755145	1
0	14029	4853.115302776916	2
0	14030	4853.549442073405	1
0	14035	4853.811883265043	0
0	14055	4867.330414488909	1
0	14056	4868.581147047408	0
0	14067	4869.413379748482	1
0	14070	4871.161815580754	0
0	14102	4886.804123929576	1
0	14108	4890.163423778187	2
0	14109	4890.603681692483	1
0	14114	4891.592047852609	0
0	14128	4896.291828722706	1
0	14135	4898.145194762201	2
0	14136	4900.152267950703	1
0	14143	4901.036495792872	2
0	14144	4902.318530509466	1
0	14150	4902.619971939279	2
0	14154	4905.999448969791	1
0	14161	4907.114991781061	2
0	14164	4910.459412861828	1
0	14172	4913.390622653627	2
0	14174	4914.669441766301	3
0	14175	4918.421176519039	2
0	14183	4924.563353736875	1
0	14190	4927.749179243352	2
0	14191	4928.19749834044	1
0	14198	4929.691526676445	2
0	14200	4930.073359732829	3
0	14202	4930.399650570536	4
0	14205	4932.643020398995	3
0	14210	4932.783031362568	2
0	14217	4933.924372859251	3
0	14218	4935.578941630274	2
0	14225	4936.344784628551	3
0	14226	4936.501146734907	2
0	14236	4940.437770920175	1
0	14241	4942.935784689053	0
0	14260	4948.671377332161	1
0	14262	4950.846533305786	0
0	14271	4953.282706908919	1
0	14279	4955.746813434347	0
0	14302	4964.296218280428	1
0	14304	4965.254646113477	2
0	14309	4970.135240534956	1
0	14315	4970.419985468133	2
0	14318	4970.763243960588	1
0	14327	4972.720320328076	2
0	14328	4973.363066042811	1
0	14334	4973.889888359613	2
0	14336	4975.24184231602	3
0	14338	4975.664994207734	4
0	14340	4979.203225161907	3
0	14346	4979.577323485008	2
0	14351	4979.786241733267	1
0	14356	4980.568057551008	0
0	14373	4986.679989660801	1
0	14376	4988.059928458032	0
0	14398	4998.757633783254	1
0	14401	5004.00141336826	0
0	14418	5010.766923869444	1
0	14419	5011.503341636664	0
0	14458	5021.701441534278	1
0	14462	5022.3023111224	0
0	14469	5023.846694853604	1
0	14470	5026.301898043231	0
0	14485	5030.719502805195	1
0	14491	5032.396143740473	2
0	14492	5033.00161626243	1
0	14498	5033.891529270817	0
0	14514	5037.63464352341	1
0	14516	5038.418522204564	2
0	14518	5039.399245307569	3
0	14522	5042.4852798237	4
0	14528	5045.86842160673	5
0	14529	5047.924045640939	4
0	14535	5048.834633115006	5
0	14537	5048.842486159981	6
0	14540	5049.565806916874	5
0	14546	5051.34777271291	6
0	14547	5051.615769814929	5
0	14555	5053.459943776001	6
0	14557	5054.472708282916	5
0	14562	5055.316658157455	4
0	14569	5057.134328193236	3
0	14575	5059.776881299504	2
0	14579	5060.818937347002	3
0	14585	5062.209220983517	4
0	14590	5065.677364806896	5
0	14596	5067.124983010293	4
0	14602	5068.616961948949	3
0	14610	5071.474817237503	2
0	14617	5072.771157574468	3
0	14619	5073.367990395361	4
0	14623	5078.830190884765	3
0	14631	5085.421944492035	2
0	14639	5087.116598229191	3
0	14641	5088.207533685784	4
0	14643	5088.424563006455	5
0	14645	5089.983236740319	6
0	14647	5091.27642758144	7
0	14649	5092.121160875787	8
0	14651	5092.40259692352	9
0	14652	5094.721114894363	8
0	14661	5095.592746335071	7
0	14667	5096.79518004276	6
0	14672	5097.385719646502	5
0	14677	5098.103462225418	4
0	14682	5099.448549682314	3
0	14690	5101.7768949546	4
0	14691	5103.098503530607	3
0	14696	5104.749734913048	2
0	14706	5111.083128311117	1
0	14712	5116.525690488972	2
0	14713	5117.00358528445	1
0	14719	5117.214143881623	2
0	14723	5119.8454455764	3
0	14724	5120.674544916486	2
0	14730	5121.33694886276	3
0	14731	5121.389838575697	2
0	14740	5122.797601998137	3
0	14741	5123.508496197965	2
0	14747	5124.309794108134	3
0	14749	5124.878507800013	4
0	14751	5126.057675611855	3
0	14756	5126.871768225134	2
0	14762	5127.624091725366	3
0	14763	5128.375761094604	2
0	14768	5129.613619631738	1
0	14774	5130.217051725068	0
0	14780	5131.371891638117	1
0	14782	5135.852813306022	0
0	14804	5140.078820912774	1
0	14805	5140.360910196804	0
0	14816	5141.044950560292	1
0	14819	5142.894046375197	2
0	14821	5143.935165091828	3
0	14824	5146.751957431311	2
0	14831	5148.830259311491	3
0	14833	5152.189214557242	4
0	14834	5152.633299127954	3
0	14841	5155.13782758781	2
0	14847	5155.584237081218	1
0	14856	5157.411451471284	2
0	14857	5157.631560927793	1
0	14863	5157.836409439298	2
0	14869	5160.821306388318	1
0	14874	5161.573518198711	0
0	14903	5172.79946791973	1
0	14908	5175.738561760201	0
0	14920	5179.697041223558	1
0	14923	5180.037608081573	0
0	14929	5181.040357442065	1
0	14932	5182.571355812852	2
0	14933	5183.079781402053	1
0	14938	5183.467402647532	0
0	14963	5188.909170238317	1
0	14965	5189.536551419315	2
0	14968	5192.470136091007	1
0	14976	5193.66987212739	2
0	14978	5194.699317709441	1
0	14986	5196.282393610032	0
0	14999	5198.371160578661	1
0	15002	5199.640970500883	2
0	15006	5205.776957911263	1
0	15012	5207.964982317844	0
0	15036	5217.51102192002	1
0	15038	5218.246913427835	0
0	15056	5221.986758651766	1
0	15057	5222.067555758961	0
0	15078	5233.54223198667	1
0	15081	5234.310127691207	0
0	15088	5236.657293609737	1
0	15092	5241.386069743235	2
0	15094	5241.438618255071	3
0	15096	5241.45674536431	4
0	15098	5241.51273568394	5
0	15099	5243.00999200394	4
0	15105	5244.437001269657	3
0	15111	5244.805033848254	2
0	15117	5246.733313409581	1
0	15122	5247.461433321927	0
0	15128	5248.731773851748	1
0	15130	5248.827734757298	0
0	15148	5250.604628403983	1
0	15150	5251.110779112468	0
0	15167	5258.320346152944	1
0	15171	5259.088067446788	2
0	15173	5259.232323824398	3
0	15174	5260.554416041932	2
0	15182	5262.328749957655	1
0	15187	5265.447414321143	0
0	15194	5266.569472388104	1
0	15196	5267.242359421362	2
0	15198	5268.64106734522	1
0	15204	5269.188782153962	2
0	15206	5269.953692390474	3
0	15208	5271.301844207056	2
0	15215	5272.470685294454	1
0	15224	5275.119129062206	0
0	15231	5279.25193043595	1
0	15232	5280.957200782038	0
0	15243	5281.991390869837	1
0	15244	5283.395921755511	0
0	15262	5286.471542480325	1
0	15263	5288.056924239466	0
0	15272	5289.813419407332	1
0	15273	5290.721061169619	0
0	15291	5293.686127942645	1
0	15293	5296.151940457971	0
0	15299	5296.989833251961	1
0	15302	5297.796356834029	0
0	15331	5305.474078561873	1
0	15333	5306.691351912275	2
0	15336	5307.003987717798	1
0	15343	5307.157049039599	2
0	15346	5308.783029616832	1
0	15352	5309.779673458799	2
0	15355	5310.737375288199	3
0	15356	5310.744783677644	2
0	15363	5311.201831626837	3
0	15364	5311.866750345019	2
0	15370	5312.511707348961	3
0	15371	5313.127255575988	2
0	15376	5313.274973795922	1
0	15382	5315.091059055868	0
0	15402	5319.129684919133	1
0	15403	5319.390870870945	0
0	15414	5323.273364264104	1
0	15417	5323.724266776626	2
0	15418	5324.024357898374	1
0	15424	5325.378761044129	0
0	15455	5333.461508993777	1
0	15459	5334.749301014347	2
0	15460	5335.731150706099	1
0	15466	5336.45631805126	2
0	15469	5340.3219020584	1
0	15475	5340.87829943343	2
0	15478	5341.297504433398	3
0	15479	5341.667180755779	2
0	15488	5347.13449923969	3
0	15489	5347.143910073918	2
0	15497	5349.40068225077	1
0	15502	5349.858488002277	0
0	15518	5352.612251446717	1
0	15520	5353.27382299089	2
0	15522	5355.194747052378	3
0	15523	5355.680485029146	2
0	15529	5359.287497867772	3
0	15533	5360.132638364991	2
0	15538	5360.225386650945	1
0	15542	5360.84571646189	2
0	15545	5364.989775494519	1
0	15549	5366.58067985795	2
0	15552	5368.810806041824	1
0	15560	5371.985743023725	0
0	15566	5374.827776823062	1
0	15568	5375.503599745469	2
0	15569	5376.548975956849	1
0	15580	5383.461847491631	0
0	15586	5384.664240753854	1
0	15588	5385.972008855867	2
0	15589	5387.030315991	1
0	15594	5389.27674539895	0
0	15610	5390.673473898179	1
0	15611	5390.752960550916	0
0	15634	5394.681386352011	1
0	15636	5395.012249782408	2
0	15638	5395.473353388855	3
0	15641	5396.374420062732	2
0	15646	5396.480605637197	1
0	15653	5396.808210252305	0
0	15664	5397.400973827234	1
0	15665	5397.838757738991	0
0	15680	5400.918957718051	1
0	15683	5401.686097369221	0
0	15690	5403.722756966838	1
0	15691	5404.004659459214	0
0	15704	5409.393386510895	1
0	15705	5410.242874019537	0
0	15719	5412.899109210662	1
0	15722	5413.346195567781	0
0	15734	5416.45428428033	1
0	15736	5417.176626635466	2
0	15739	5419.419106932278	1
0	15744	5419.997080237206	0
0	15776	5431.272777332808	1
0	15778	5432.763632612487	2
0	15784	5434.375286013205	1
0	15789	5435.802548943823	0
0	15812	5444.158066026747	1
0	15813	5446.191995345366	0
0	15829	5453.365881026436	1
0	15831	5454.647933543776	2
0	15833	5454.99736018753	3
0	15837	5463.953140248706	4
0	15838	5465.942822901124	3
0	15845	5467.011291962668	4
0	15847	5470.301639659955	5
0	15853	5473.488333298566	6
0	15854	5473.640290029935	5
0	15860	5474.453710409706	4
0	15867	5477.725613752873	5
0	15868	5478.035094951349	4
0	15873	5479.478676770307	3
0	15880	5479.927514622948	4
0	15882	5480.489165144241	3
0	15887	5480.723046104872	2
0	15895	5481.820089400935	1
0	15904	5485.050978739092	0
0	15911	5485.964942403887	1
0	15912	5486.12004284182	0
0	15924	5488.643507758092	1
0	15928	5489.213804911886	2
0	15929	5489.57993254835	1
0	15936	5490.30581550038	2
0	15937	5492.122507747122	1
0	15943	5493.483011553559	0
0	15949	5494.506235317732	1
0	15950	5494.830315793392	0
0	15971	5498.142764278389	1
0	15976	5500.76365129907	2
0	15977	5503.004369744252	1
0	15985	5504.025592533353	0
0	15991	5504.690214984554	1
0	15995	5507.349999306015	0
0	16018	5521.366083247346	1
0	16026	5527.786563574993	0
0	16040	5528.981818066385	1
0	16043	5529.907600285599	0
0	16059	5536.84565337924	1
0	16062	5539.085253237558	0
0	16072	5540.960574424934	1
0	16075	5542.406199501603	0
0	16151	5568.996371240664	1
0	16152	5570.499613635777	0
0	16170	5575.805068389116	1
0	16176	5576.271993751592	2
0	16178	5579.34490194714	3
0	16181	5581.499621935743	2
0	16187	5583.466365061118	1
0	16193	5583.955880139266	0
0	16205	5585.631689411367	1
0	16206	5586.309972380583	0
0	16225	5595.570164640581	1
0	16227	5595.854357831506	2
0	16228	5596.876852665039	1
0	16234	5598.781418484727	0
0	16251	5608.132530237055	1
0	16254	5609.95312831608	0
0	16266	5611.795015880619	1
0	16271	5612.914058846999	2
0	16273	5613.620299035139	3
0	16274	5613.989623774856	2
0	16280	5614.676072890937	3
0	16281	5616.805078961603	2
0	16286	5617.252704249089	1
0	16292	5617.602163888889	2
0	16295	5618.370048358472	3
0	16296	5618.592170471273	2
0	16301	5621.216085769286	1
0	16308	5622.642832390243	2
0	16312	5623.952560855179	1
0	16317	5624.506431674877	0
0	16350	5628.801629623332	1
0	16354	5632.836154593798	0
0	16368	5636.800108567425	1
0	16373	5640.375973827305	2
0	16375	5641.703615932589	3
0	16377	5641.8216869779	4
0	16381	5645.363565059943	5
0	16382	5646.686712464995	4
0	16388	5646.756926317367	5
0	16392	5650.41685652699	4
0	16397	5650.72826348111	3
0	16402	5650.845559844104	2
0	16408	5652.184178782926	3
0	16409	5652.414892136371	2
0	16414	5654.219172444352	1
0	16426	5660.962185840336	2
0	16436	5668.858528247562	3
0	16438	5670.34899618375	2
0	16444	5671.605407085609	3
0	16446	5673.10725583588	4
0	16447	5673.159819964557	3
0	16454	5675.514977796746	2
0	16459	5675.990140563855	1
0	16463	5676.693916251584	2
0	16468	5681.758749043143	1
0	16474	5682.311596621413	2
0	16478	5686.496945941843	3
0	16482	5688.712703652005	2
0	16488	5691.649020519133	1
0	16497	5693.293071140528	2
0	16499	5693.755286991073	3
0	16500	5696.814597122749	2
0	16508	5698.424533723666	1
0	16514	5699.746649682289	2
0	16515	5700.551447068341	1
0	16521	5701.043567035078	2
0	16522	5702.164189638375	1
0	16527	5702.176010119741	0
0	16566	5714.733882509198	1
0	16569	5715.023493838694	0
0	16578	5717.406890260384	1
0	16582	5719.004707772065	0
0	16593	5722.34972502538	1
0	16594	5725.136038726652	0
0	16625	5734.618607528511	1
0	16626	5734.62494721072	0
0	16664	5747.67921478693	1
0	16668	5752.681960924247	0
0	16675	5753.386674713321	1
0	16677	5754.170675910715	2
0	16678	5754.384737619034	1
0	16684	5754.946470968173	0
0	16690	5755.937561129663	1
0	16692	5757.035989935336	0
0	16698	5757.195223552595	1
0	16701	5759.300311418829	0
0	16717	5764.387395406485	1
0	16719	5766.187966945685	2
0	16721	5766.350023601366	3
0	16730	5771.64879814113	4
0	16732	5774.700918147489	5
0	16735	5775.871200193747	4
0	16741	5776.288116146773	5
0	16743	5777.849126065224	4
0	16748	5778.112574718536	3
0	16758	5780.166679983787	4
0	16760	5782.034973096107	5
0	16762	5783.872734179882	6
0	16763	5784.480787920095	5
0	16768	5784.993215003987	4
0	16773	5785.534099355462	3
0	16782	5789.530743807316	2
0	16789	5790.032256852648	3
0	16790	5791.590485272967	2
0	16798	5795.515266170263	1
0	16804	5796.326040155427	2
0	16805	5798.279936245234	1
0	16810	5798.317239692728	0
0	16814	5798.7557363319	1
0	16817	5799.061050617877	0
0	16821	5801.974363186992	1
0	16823	5802.426410974522	2
0	16828	5803.909987223875	1
0	16832	5804.023910753293	2
0	16840	5807.044223352962	1
0	16845	5807.176232481432	0
0	16873	5816.698935431659	1
0	16875	5818.215586324866	2
0	16876	5820.706788253756	1
0	16881	5820.845469861719	0
0	16887	5822.102935071666	1
0	16888	5823.831070257501	0
0	16931	5841.049233345858	1
0	16933	5841.194956140649	2
0	16937	5842.256992708893	3
0	16940	5844.073525481469	2
0	16948	5846.560091891618	3
0	16951	5848.345456334698	4
0	16954	5851.843112544166	3
0	16963	5855.079052481229	2
0	16971	5855.700954787231	1
0	16977	5855.779829876567	2
0	16978	5856.126900380232	1
0	16985	5857.426248712847	2
0	16992	5862.787202188268	1
0	16997	5863.117323985909	0
0	17003	5863.370519347812	1
0	17006	5863.862220829247	2
0	17009	5864.75745596268	3
0	17010	5864.953809202463	2
0	17018	5865.625332859323	3
0	17020	5865.740486114276	4
0	17021	5867.061288214991	3
0	17026	5867.4189942607	2
0	17030	5867.535108119536	3
0	17032	5869.598254410678	4
0	17037	5875.832545239497	3
0	17041	5876.155165520931	4
0	17045	5877.19395795596	5
0	17049	5878.081510841525	6
0	17051	5878.186829924295	7
0	17052	5878.277019690636	6
0	17057	5878.44798880951	5
0	17062	5879.356044629079	4
0	17066	5879.466663995568	5
0	17075	5884.542849164108	4
0	17081	5886.022442638547	5
0	17084	5888.139246492202	6
0	17086	5888.92517310218	5
0	17093	5890.337202620653	4
0	17099	5890.375323157381	5
0	17104	5893.872168044254	4
0	17110	5893.960786674387	5
0	17111	5894.346092220082	4
0	17117	5894.586155456824	5
0	17119	5895.767156510609	6
0	17121	5896.763080141142	5
0	17127	5897.875090382357	4
0	17134	5898.874271386166	3
0	17140	5901.118673893329	4
0	17142	5901.152646681759	5
0	17143	5901.943008365825	4
0	17156	5912.793710680194	3
0	17162	5912.810740551157	4
0	17166	5914.549641850525	3
0	17173	5915.291544790113	4
0	17174	5916.076439301568	3
0	17184	5919.655655200976	2
0	17189	5921.297666709596	1
0	17194	5922.093981215699	0
0	17219	5929.003246895552	1
0	17223	5930.957127028764	2
0	17224	5931.136004926605	1
0	17229	5931.511033012301	0
0	17236	5934.074979311464	1
0	17239	5936.679903498461	0
0	17254	5940.544404877327	1
0	17256	5943.064801783581	0
0	17292	5948.738651710287	1
0	17294	5950.120037655284	2
0	17298	5951.238621624128	1
0	17305	5953.332232608229	0
0	17311	5955.579723402338	1
0	17312	5956.321475458478	0
0	17319	5956.810903678726	1
0	17320	5956.896178040298	0
0	17339	5965.305261175205	1
0	17340	5965.328679987879	0
0	17360	5969.971072200908	1
0	17363	5972.734121948294	0
0	17380	5976.589748102212	1
0	17382	5977.425002970551	2
0	17386	5977.670658531949	3
0	17387	5978.593352232328	2
0	17394	5979.820494366677	1
0	17405	5984.124115893934	2
0	17406	5984.198586422142	1
0	17413	5986.212489949376	0
0	17419	5986.351039307635	1
0	17421	5989.938631004368	0
0	17433	5992.423057489985	1
0	17439	5995.723353552865	2
0	17441	5996.115492753668	3
0	17442	5996.83249266894	2
0	17447	5997.010153182038	1
0	17453	5997.896515934792	0
0	17478	6004.375401806134	1
0	17479	6004.475672976755	0
0	17488	6008.248904929727	1
0	17492	6011.97017662734	2
0	17494	6012.308687014869	3
0	17495	6013.104098096551	2
0	17500	6014.21319729432	1
0	17506	6018.064115550159	0
0	17515	6020.243846341836	1
0	17516	6021.027653314825	0
0	17529	6024.449443952899	1
0	17530	6027.28067110173	0
0	17549	6031.28629406694	1
0	17550	6032.959714917648	0
0	17571	6042.205043920198	1
0	17572	6042.409503057436	0
0	17588	6044.287007423272	1
0	17590	6044.613827412384	2
0	17592	6045.162608397568	3
0	17594	6047.295659472444	2
0	17599	6048.053889094007	1
0	17608	6050.956126704483	2
0	17609	6051.723240497979	1
0	17614	6052.133648001555	0
0	17631	6054.739744365661	1
0	17633	6054.929765236476	2
0	17636	6057.054119712926	1
0	17641	6057.231589933182	0
0	17660	6061.363481584046	1
0	17662	6061.914595408019	2
0	17663	6064.06002336349	1
0	17669	6064.210190744889	2
0	17672	6066.772110198439	3
0	17673	6066.988963474493	2
0	17679	6070.022914971071	1
0	17687	6070.884162696055	2
0	17690	6071.194489807678	3
0	17696	6074.592918126799	2
0	17702	6075.072825876712	3
0	17704	6076.016811623019	4
0	17705	6076.985259657158	3
0	17710	6076.988146113175	2
0	17728	6082.136911014368	3
0	17730	6083.326961075675	4
0	17731	6083.905595400435	3
0	17737	6085.748060120986	2
0	17744	6087.306802489472	1
0	17751	6088.570337234092	0
0	17764	6091.482345061826	1
0	17766	6091.695658730053	2
0	17768	6091.927107398323	3
0	17770	6093.181905395906	4
0	17771	6094.879039126007	3
0	17777	6096.690160301622	2
0	17783	6099.217639414894	1
0	17793	6103.911636243334	0
0	17800	6104.635690853583	1
0	17802	6105.260611345537	0
0	17811	6106.80014230123	1
0	17815	6107.745994176215	2
0	17816	6107.778471965033	1
0	17822	6108.11905548048	2
0	17825	6108.677518893758	3
0	17826	6108.80301618734	2
0	17832	6109.323938620568	3
0	17834	6110.644057774361	2
0	17843	6113.423720248543	3
0	17848	6118.032887333072	2
0	17855	6119.766461408845	1
0	17863	6120.817608737842	2
0	17865	6122.101119329114	3
0	17868	6128.162515360803	2
0	17873	6128.991516763034	1
0	17878	6129.113172968881	0
0	17922	6141.979240765537	1
0	17924	6142.092592745217	2
0	17925	6144.483534632283	1
0	17932	6147.556019906499	2
0	17934	6148.464966538989	3
0	17936	6150.569419918944	4
0	17938	6152.817360139335	5
0	17939	6154.474917086232	4
0	17947	6155.581208885133	3
0	17952	6155.910805069647	2
0	17958	6156.185563127733	1
0	17963	6156.227908195895	0
0	17970	6158.499677602359	1
0	17973	6160.16158187014	0
0	17994	6173.286696185891	1
0	17995	6173.370194883409	0
0	18002	6174.586239995013	1
0	18003	6175.48528316533	0
0	18022	6185.830911422528	1
[...]
4	78115	26113.404122286476	6153.2097555671
4	78139	26123.94265195696	6154.6732215661
4	78148	26132.380873175133	6162.8235625357
4	78222	26159.395148484683	6173.7372140177
4	78285	26183.877236553041	6193.5379921116
4	78291	26185.011567357897	6191.994188887
4	78298	26187.184731342834	6190.0667970879
4	78374	26209.068702336974	6203.08383213
4	78384	26210.336919205876	6201.8883509881
4	78395	26213.420684838779	6204.7195681803
4	78414	26217.706229454529	6193.152970016
4	78427	26222.757089868474	6197.0145940407
4	78462	26233.508080608559	6201.221300427
4	78473	26235.424600532454	6202.9921318587
4	78484	26242.451048444002	6207.0675589898
4	78504	26244.247907487343	6190.2442183665
4	78513	26248.383492385117	6173.8034346043
4	78518	26248.385919298895	6173.5783811565
4	78524	26249.518507036939	6173.4840917819
4	78533	26250.385013359006	6173.9869745985
4	78576	26268.526072952372	6180.3029249308
4	78656	26296.338054852763	6200.9511948112
4	78662	26296.963205260696	6198.6451965225
4	78668	26298.985370587325	6198.2462326652
4	78676	26306.333398297566	6203.528885832
4	78687	26313.629041142071	6203.4738054882
4	78692	26314.411755450037	6203.8593877983
4	78705	26320.999837110725	6209.5781865168
4	78856	26353.136252044057	6240.6175057807
4	78865	26354.445815640439	6222.5363092142
4	78878	26358.97345341788	6224.1630870624
4	78957	26385.055241270748	6246.9799622329
4	78970	26390.173251991179	6247.3917472291
4	78975	26392.26665180465	6249.0444651243
4	78980	26398.449802642808	6255.1771615573
4	78989	26402.710695408816	6257.602677685
4	78999	26406.874657243608	6250.6461608802
4	79028	26416.834012824739	6253.3983796258
4	79033	26417.376401285142	6251.2902253532
4	79038	26418.424397020153	6250.7908055563
4	79049	26421.95737304917	6244.9872780448
4	79067	26425.369053195362	6248.0731209034
4	79142	26451.472334631375	6259.9395332249
4	79147	26452.792388688605	6254.3211293217
4	79154	26454.513133926948	6255.7053506053
4	79161	26457.841068236347	6256.2136858048
4	79174	26466.779198454092	6264.9381740896
4	79187	26470.784736017675	6259.4519274992
4	79194	26473.678478416333	6221.1346344533
4	79217	26482.254491324451	6222.5808104048
4	79250	26492.881248112003	6232.3728269629
4	79256	26493.713010849299	6229.5866614499
4	79263	26494.183812667927	6197.8808243689
4	79276	26497.649041341349	6194.3504555026
4	79310	26508.271088916851	6204.4169375831
4	79341	26514.535801255309	6202.5259534266
4	79346	26515.133448290564	6196.4193041826
4	79353	26520.701659302982	6197.9655445739
4	79600	26599.278687955117	6266.787353249
4	79607	26599.609222523424	6263.9483416863
4	79615	26601.884499081846	6265.3976716846
4	79632	26605.725063662101	6268.5603923864
4	79732	26638.979053463345	6291.3966721325
4	79765	26650.405674360788	6297.8664555845
4	79772	26653.503424871072	6293.5208544545
4	79783	26656.220067842767	6296.0397285335
4	79788	26656.978939011834	6295.4715500015
4	79796	26659.434047835517	6296.0517003297
4	79806	26660.373815643278	6295.3415258794
4	79813	26661.493088367297	6293.1658582597
4	79818	26664.754406406614	6292.0036640672
4	79834	26668.924389455443	6284.6120772569
4	79952	26700.045594917814	6299.2502025468
4	79959	26700.520990121159	6296.9838954471
4	79976	26703.523294328134	6298.321832401
4	79989	26709.334937957573	6303.9327829946
4	80146	26772.010704202108	6364.1944555902
4	80151	26772.571956144258	6360.4847340861
4	80160	26777.755560235687	6361.2181029867
4	80228	26794.343262221396	6375.5079037454
4	80248	26801.944049719069	6370.7856243013
4	80255	26803.288208835221	6368.1171654436
4	80285	26820.053803064581	6383.1033680291
4	80334	26831.343757230204	6393.075671094
4	80342	26832.88253246914	6394.4853293575
4	80375	26841.980989906884	6402.6776218234
4	80396	26850.661513854473	6408.1542045852
4	80416	26861.599416005681	6415.3091354852
4	80428	26862.797784105985	6412.3401763166
4	80437	26869.109668224343	6412.6404027483
4	80453	26873.835524784857	6416.245991255
4	80470	26880.601018491279	6418.8155922765
4	80549	26906.080887036394	6432.6866292728
4	80556	26909.82605248918	6432.9880729299
4	80566	26912.108767911445	6434.9580386038
4	80573	26917.331419171841	6435.5958189348
4	80580	26918.429748871119	6431.5358977515
4	80618	26928.403489151293	6436.3895206942
4	80627	26932.211275752493	6426.4591940779
4	80639	26935.823603673605	6417.246812456
4	80649	26936.930800709738	6418.1732445613
4	80675	26943.228756873362	6422.723326554
4	80680	26945.810472749141	6419.7796259124
4	80687	26947.739105374448	6419.4161453071
4	80700	26950.322455786434	6421.5532302452
4	80706	26954.523986023366	6425.4536739977
4	80711	26954.556784478934	6412.6509222544
4	80716	26955.377864635396	6410.7924016986
4	80725	26958.353833678641	6411.9618320492
4	80752	26967.659399969829	6419.9110163071
4	80770	26974.43827885791	6425.6096153432
4	80775	26976.685337837119	6419.3491678717
4	80780	26977.410237710345	6418.9699137172
4	80790	26979.397052445225	6413.2976142229
4	80807	26986.585817211189	6415.6658893859
4	80863	27004.242276205214	6428.4443497009
4	80879	27013.756874400904	6434.6194200514
4	80982	27058.573234888664	6477.511594195
4	80999	27060.134968298643	6475.270094587
4	81006	27061.448096042513	6470.980729629
4	81019	27063.979281921132	6473.0070568912
4	81031	27069.319036118576	6474.1892256043
4	81057	27076.601215159445	6461.4703430194
4	81074	27084.936096628502	6439.8249996254
4	81079	27085.119538827865	6437.897626548
4	81086	27085.905601259727	6434.7322164232
4	81097	27097.414015120842	6439.5416652861
4	81110	27100.895719569903	6440.141656814
4	81128	27109.427732561098	6431.5391640087
4	81174	27127.27967724383	6441.5978346484
4	81195	27132.829642178925	6444.1863679989
4	81208	27135.979138970892	6445.7919480817
4	81228	27144.585684139393	6444.7685979107
4	81286	27156.322076770022	6454.3320920307
4	81293	27160.000487107003	6444.3301066078
4	81307	27164.858805721103	6442.2879526788
4	81314	27166.650144062116	6440.2718080727
4	81322	27173.886625505091	6443.6109883614
4	81336	27176.292736703993	6443.7552652834
4	81374	27187.366775828106	6454.6485245569
4	81420	27198.610536042275	6462.5226990737
4	81434	27202.080663776979	6464.9059219331
4	81445	27203.360918327759	6465.195307369
4	81450	27204.206757060514	6463.0525071535
4	81457	27208.101689867999	6466.0277801475
4	81468	27212.957415447751	6465.8168311401
4	81473	27215.043321389465	6467.812692791
4	81481	27216.735005118295	6463.8491931521
4	81499	27221.492695905343	6456.2041010806
4	81505	27224.567140582953	6451.261258424
4	81510	27227.193927011829	6452.2676367774
4	81515	27232.597280226992	6457.5189350745
4	81520	27234.058976160218	6456.9516199023
4	81533	27238.918649420105	6456.3112371472
4	81558	27243.706159865072	6459.0227207693
4	81570	27252.662440633563	6467.7872021319
4	81582	27259.699688377415	6474.810559984
4	81589	27260.079408250175	6465.0338622778
4	81604	27264.914066264003	6465.1721286796
4	81620	27268.785835330005	6461.5557670922
4	81634	27269.390355053583	6459.6987456181
4	81639	27269.82513500344	6444.2088167377
4	81644	27270.505686452662	6436.1482309406
4	81660	27280.184468379312	6438.4974275848
4	81670	27282.328460222848	6433.4038652612
4	81682	27289.518114050487	6438.9538713511
4	81700	27295.16944483232	6431.755345812
4	81713	27303.760366735358	6436.8666576202
4	81761	27318.107041834038	6447.6191399501
4	81768	27321.821581901343	6439.4442793649
4	81821	27335.466342410257	6436.4178798461
4	81826	27335.677844847229	6435.5857405097
4	81839	27342.818358125465	6437.5125370156
4	81869	27351.962120455436	6444.5325586408
4	81877	27352.226008256999	6438.3733093388
4	81889	27355.880765692686	6440.8102985247
4	81898	27359.682709657857	6439.1370302931
4	81937	27370.251787898094	6443.348366455
4	81948	27374.754685989135	6428.3699200792
4	81985	27386.152544844247	6433.8798843437
4	82024	27401.050580562332	6448.6591831086
4	82035	27403.244983894106	6443.4751398366
4	82052	27413.636673583853	6451.6211583846
4	82100	27424.487130410533	6462.2626548503
4	82116	27432.317826309516	6459.1487634181
4	82338	27510.927275834576	6528.0294224031
4	82380	27516.648614581085	6533.7201606385
4	82386	27517.517438360843	6528.3461973078
4	82391	27517.765640712418	6522.5583923878
4	82400	27521.643931560123	6525.8394881399
4	82412	27522.658450232274	6524.8785121624
4	82421	27524.638196889418	6524.798521579
4	82505	27548.363310337981	6546.4649762796
4	82522	27558.557617511975	6554.5356284972
4	82535	27562.092098998038	6542.3497022331
4	82590	27584.498350386653	6563.4058750682
4	82676	27610.569006961307	6584.2538587164
4	82681	27611.133360494951	6584.0538366249
4	82688	27612.730545974179	6584.6963930074
4	82699	27622.187306955365	6588.9809320989
4	82708	27625.067737404009	6585.4866692573
4	82898	27718.699396789229	6674.3227266363
4	82939	27730.7338646974	6684.0683433404
4	82953	27735.880611689218	6688.4138249136
4	82963	27737.796708104077	6689.5701928252
4	82968	27738.659225135966	6684.9887561192
4	82973	27739.117577927971	6676.1000636376
4	82982	27740.75835854758	6660.274211574
4	82996	27743.451167875693	6661.5587279998
4	83013	27753.982923369385	6666.3104205072
4	83073	27770.88288499115	6682.2273959105
4	83087	27777.101478237129	6674.4038902617
4	83114	27782.295906214095	6678.0930337734
4	83121	27785.518051967102	6680.9955970399
4	83129	27787.105915307888	6670.2156232086
4	83140	27789.677665125152	6669.3838640995
4	83147	27792.625440054648	6670.7071742681
4	83158	27796.701151114016	6673.7343535011
4	83165	27801.487685325247	6678.2519738369
4	83176	27804.235754099954	6677.6275315645
4	83183	27805.26943260819	6676.272410747
4	83214	27811.287356601945	6675.5572684859
4	83226	27813.367840582347	6676.6941701669
4	83240	27816.589933181202	6675.2220871968
4	83345	27850.269607052251	6692.0290579336
4	83358	27857.501693552499	6686.1838999744
4	83393	27867.038755468727	6693.9383748089
4	83419	27877.694082906734	6687.2752015841
4	83448	27883.826221464584	6688.0590301661
4	83475	27897.940244439406	6701.8118599367
4	83494	27905.485647139066	6700.7335402896
4	83499	27906.369478937097	6695.494055325
4	83510	27911.366226835569	6697.1237992379
4	83576	27936.469606247735	6717.4686310934
4	83587	27943.003308969107	6718.6075381905
4	83604	27948.605493199701	6723.4082512118
4	83613	27953.727289965346	6728.4225225945
4	83623	27955.392705121	6729.4307484017
4	83628	27955.49729673001	6725.6613677628
4	83644	27959.576160951015	6723.9767207583
4	83726	27983.230722266702	6742.0208273683
4	83731	27983.481308891365	6742.0036329829
4	83750	27989.529894632113	6733.7297143135
4	83932	28045.508403330528	6783.7706021263
4	83937	28046.162983678965	6783.2454738758
4	83946	28048.011135727417	6776.6527547706
4	83961	28055.036061709504	6781.8578635059
4	83968	28056.966343896213	6782.7549504265
4	83990	28073.076623557247	6793.6402577525
4	83995	28075.234475493782	6771.0168414138
4	84006	28081.592413542885	6764.5052591003
4	84065	28101.266153378006	6775.4512780855
4	84082	28102.543136393527	6773.1995676404
4	84087	28102.883093004836	6764.4024445706
4	84095	28104.993764582239	6760.9983701629
4	84110	28114.309005902721	6758.1428166347
4	84160	28126.629408609064	6768.0365267679
4	84172	28132.478543186727	6769.9777647486
4	84319	28185.689207641986	6809.9079263209
4	84326	28187.189006220585	6806.7733933919
4	84331	28187.300286492529	6800.5050438971
4	84338	28189.161742318883	6800.2020086095
4	84345	28192.529903116297	6794.5552942453
4	84354	28193.858549774751	6782.2079681339
4	84579	28267.916209835457	6845.5269620704
4	84586	28270.615444716416	6847.7453288063
4	84604	28273.552976911316	6843.1517270165
4	84641	28285.436293566292	6851.9020858457
4	84648	28289.728652773267	6852.0359278785
4	84666	28291.699736912457	6845.8264535582
4	84674	28293.298478258782	6833.6471963237
4	84685	28296.922768046343	6824.4984047585
4	84695	28305.058582869521	6816.8282874319
4	84714	28312.558329089216	6814.6937382522
4	84729	28321.089689754356	6811.8859613991
4	84766	28327.60197523218	6817.7798513317
4	84781	28335.527159244079	6820.4323143029
4	84786	28335.595625381831	6820.1441371072
4	84793	28337.828809733797	6818.4763954019
4	84811	28343.189564215117	6809.9814808965
4	84822	28349.275062949493	6812.3724232225
4	84830	28351.553247729582	6810.4896953703
4	84835	28352.872258530953	6796.7988715154
4	84840	28354.227610951156	6794.8288923651
4	84847	28359.467486025019	6794.0534510095
4	84855	28361.01601458095	6793.8893622475
4	84870	28362.990138930741	6792.1654769522
4	84964	28385.800504547253	6811.945120935
4	84977	28387.938028739427	6812.1995846551
4	84995	28391.926696485895	6808.7065893137
4	85029	28398.370266466161	6808.3260550938
4	85048	28404.128665433834	6813.279391783
4	85098	28423.421088305662	6829.0815433151
4	85111	28427.211986931809	6825.8741515246
4	85385	28515.577558236485	6911.8426844687
4	85393	28516.382645318931	6912.1947486413
4	85398	28516.411773407635	6879.4910509806
4	85405	28523.81188355581	6878.9294337601
4	85426	28534.877624717456	6884.6658389168
4	85466	28544.211711986121	6888.9508180475
4	85475	28549.676148450629	6893.7377712638
4	85522	28555.938586903575	6897.6711596172
4	85527	28556.541799439407	6894.8182185595
4	85533	28557.549233242904	6894.9171617667
4	85540	28558.240890233803	6884.2811996515
4	85552	28561.565922517515	6877.0257752956
4	85564	28565.353197154026	6874.0504591958
4	85569	28565.877723060514	6861.065854773
4	85578	28569.439733913116	6863.3949845951
4	85593	28576.572206051525	6852.1678002051
4	85618	28581.208266876249	6852.6069654613
4	85627	28584.594626378301	6854.8434777841
4	85656	28597.136129343045	6864.9285826103
4	85680	28604.230016183058	6866.2897143018
4	85687	28610.288124531711	6868.8336245175
4	85720	28622.300939713413	6880.8132340615
4	85725	28622.607999998195	6877.1076809041
4	85735	28625.686306005694	6875.8219547444
4	85948	28697.923503971605	6940.086956273
4	85956	28699.393642792944	6938.7023995678
4	85980	28704.215914168417	6943.421537477
4	85993	28707.064461700897	6938.974623898
4	85999	28710.098169693029	6941.7000229676
4	86006	28712.897344820866	6942.6501457265
4	86017	28714.133048262135	6937.1477625878
4	86030	28721.490109637204	6936.1653634284
4	86089	28735.289781269796	6947.0434757061
4	86107	28741.630799031746	6947.9155304555
4	86374	28830.759195918518	7034.9981383142
4	86388	28840.5549459257	7040.2605728864
4	86395	28844.385232024827	7039.3987351851
4	86414	28855.380448404	7049.6699638714
4	86672	28943.757448231832	7136.5590027975
4	86677	28945.910774810164	7134.1551382122
4	86683	28946.52288238418	7130.6448008209
4	86698	28956.246411019713	7133.3040665818
4	86808	29002.608114150505	7179.4312106207
4	86820	29004.665231693387	7174.5923760268
4	86826	29005.054874689209	7174.1015155062
4	86831	29008.064977112715	7167.8875500488
4	86836	29010.545642972522	7164.6045538772
4	86849	29014.318217787164	7155.5267999465
4	86885	29022.747114537516	7163.6215926889
4	86890	29023.722930603219	7138.2670681603
4	86896	29026.308916015448	7131.8061780621
4	86901	29026.71512617863	7131.3870099725
4	86910	29029.955890510349	7125.7983366895
4	86926	29032.349334676036	7115.7138788268
4	86949	29040.876092091465	7102.2114327527
4	86974	29045.890816383454	7107.0455933419
4	86983	29048.49640150615	7108.9644924591
4	87041	29059.112413150334	7117.414255088
4	87054	29064.135217664618	7121.8231095392
4	87060	29064.853521002223	7121.3526194622
4	87065	29065.324427265867	7119.4753653187
4	87076	29070.541480895934	7124.1569431363
4	87088	29072.743346983696	7120.6520919712
4	87300	29144.428332562007	7183.0239106509
4	87305	29144.579720684095	7169.0740238253
4	87313	29147.078772604379	7166.1224000784
4	87320	29151.332701359186	7168.7943433571
4	87330	29154.723941646086	7168.4946591416
4	87343	29162.074828598212	7163.3038517222
4	87370	29176.043493044588	7177.0914224403
4	87379	29180.210596585551	7176.4740817336
4	87392	29184.677359049108	7177.4582825654
4	87407	29186.617545725805	7170.2047095453
4	87440	29194.757691852702	7173.7620180988
4	87459	29201.036040064969	7176.1599708242
4	87480	29206.531951219244	7179.8955864354
4	87493	29212.180675501127	7183.2684911651
4	87543	29226.944892446327	7191.8725750681
4	87605	29246.978759502249	7207.0117773056
4	87626	29252.226501642117	7210.6505967348
4	87649	29254.250554250869	7210.4521510481
4	87656	29258.226868872467	7213.5137874819
4	87671	29267.453864823027	7216.8801776052
4	87694	29272.471011184194	7218.9616937478
4	87749	29301.642262229745	7246.3603819918
4	87947	29364.181935535675	7286.5840629086
4	87971	29365.402355014019	7278.4118883546
4	87979	29368.157539578424	7278.8053707248
4	87984	29369.061345707956	7270.9377960046
4	87990	29370.846112815665	7266.897191307
4	87997	29375.742712961811	7254.8636406646
4	88035	29385.84690374412	7247.651469896
4	88043	29393.302662221278	7242.1220141062
4	88049	29394.445774645246	7238.2431763386
4	88054	29396.669727770358	7235.5802520655
4	88069	29405.587384752785	7224.9790073508
4	88143	29424.762374738996	7230.2073819944
4	88182	29437.399177410075	7227.5070399454
4	88193	29440.138439175724	7227.5393511247
4	88198	29443.934633653101	7222.4717373935
4	88204	29445.228181773206	7215.7254419104
4	88214	29449.219428852588	7216.5325188134
4	88240	29460.643029056446	7225.2484459409
4	88247	29461.32298763799	7201.7407025694
4	88293	29477.879821830152	7217.2716531566
4	88306	29481.82842056251	7206.6063444032
4	88324	29484.15717797854	7201.7874408924
4	88339	29492.587968760118	7207.0039433699
4	88347	29493.999243572006	7207.0699830917
4	88360	29497.962160859954	7196.7314083705
4	88366	29498.655085042889	7184.4758824324
4	88371	29499.034486837572	7175.1218974939
4	88383	29507.562796426562	7175.859897229
4	88406	29513.724581118587	7171.0588336106
4	88417	29518.434877872433	7173.7703506469
4	88460	29533.236702637822	7163.655482584
4	88471	29539.424313096536	7169.6045644842
4	88491	29547.676231214441	7175.3656947701
4	88549	29566.630236426934	7193.2260750324
4	88554	29567.270852541019	7193.3775968379
4	88560	29568.496277776769	7193.906800369
4	88567	29572.892786075805	7191.2283805672
4	88598	29586.029301618696	7202.1649528062
4	88662	29609.615360125713	7207.6458280901
4	88713	29621.375823537328	7211.1998086484
4	88718	29621.793803558436	7209.6458912287
4	88728	29625.730391070371	7207.1940883092
4	88764	29636.426553362238	7207.2565815062
4	88780	29637.830811487716	7201.68054986
4	88786	29641.110972054519	7203.6744672584
4	88791	29641.55999275166	7201.6265653785
4	88800	29644.468592270868	7197.656554358
4	88810	29645.869712846843	7195.4256304741
4	88824	29649.38810331946	7197.8366960494
4	88862	29656.921441529637	7202.290012864
4	88875	29660.436608537381	7205.705458272
4	88910	29668.783161324037	7207.8450619006
4	88917	29670.207927238278	7206.6303251943
4	88922	29670.334730998315	7192.6842977475
4	88927	29673.399837107503	7189.9121328372
4	88938	29679.150480541034	7190.1169385911
4	88978	29687.426039546758	7196.8312787694
4	88989	29689.301444851915	7195.0235863627
4	89009	29701.594568838718	7203.9109905159
4	89016	29701.977455558444	7184.7246887351
4	89025	29705.302338995737	7187.6485721041
4	89046	29714.561342454923	7196.0758753611
4	89217	29762.033853402654	7239.6330146249
4	89227	29766.251911827354	7241.5340193752
4	89497	29852.238180069218	7322.2624161826
4	89502	29853.878169393225	7309.8353746762
4	89507	29854.186437702835	7297.880548254
4	89518	29857.91482927066	7297.2615753319
4	89540	29861.386847319022	7298.3677937342
4	89546	29863.466204815464	7300.420897279
4	89553	29864.937612418231	7284.8523237575
4	89582	29871.512519302137	7286.0445738098
4	89592	29873.652808667188	7286.2913220582
4	89646	29892.520139582724	7304.5126822621
4	89660	29901.184149605344	7306.5630487499
4	89671	29904.477066109231	7308.8010739418
4	89676	29905.063653656513	7304.9250404442
4	89685	29907.788313839964	7305.0017788151
4	89692	29912.148214683839	7303.8560958198
4	89702	29914.427891246918	7284.2247995402
4	89722	29923.370556473182	7282.724201872
4	89751	29930.242701661201	7288.0521286927
4	89790	29941.988745535325	7298.2688645035
4	89898	29982.079700219921	7337.9116532815
4	89917	29989.839763481274	7340.9310988447
4	89926	29994.332574149034	7341.2260237104
4	89947	29997.754807398202	7343.681154997
4	89952	29999.169839887194	7335.4312486912

