version 2
run Third-n3-19-20191016-14:54:03-9948
attr configname Third-n3
attr datetime 20191016-14:54:03
attr experiment Third-n3
attr inifile omnetpp.ini
attr iterationvars ""
attr iterationvarsf ""
attr measurement ""
attr network org.omnetpp.queueing.Pizza
attr processid 9948
attr repetition 19
attr replication ""
attr resultdir results
attr runnumber 19
attr seedset 19
param **.PS.maxInventoriedPS 3
param **.U1.interArrivalTime exponential(4s)
param **.U2.interArrivalTime exponential(6s)
param **.PS.serviceTimeForInventoryU1 exponential(1.4s)
param **.PS.serviceTimeForInventoryU2 exponential(1.4s)
param **.PS.serviceTimeDirectU1 exponential(1.8s)
param **.PS.serviceTimeDirectU2 exponential(1.8s)
param **.PS.probabilityProducing 0.8
param **.CS.serviceTimeU1 exponential(2.3s)
param **.CS.serviceTimeU2 exponential(2.3s)

vector 0 Pizza.EntryQueueU1 queueLength:vector ETV
attr interpolationmode sample-hold
attr title "queue length, vector"
vector 1 Pizza.CS queueLength:vector ETV
attr interpolationmode sample-hold
attr title "queue length, vector"
vector 2 Pizza.EntryQueueU2 queueLength:vector ETV
attr interpolationmode sample-hold
attr title "queue length, vector"
vector 3 Pizza.sink lifeTime:vector ETV
attr interpolationmode none
attr title "lifetime of arrived jobs, vector"
attr unit s
vector 4 Pizza.sink lifeTimeU2:vector ETV
attr interpolationmode none
attr title "lifetime of arrived jobs, vector"
attr unit s
0	0	0	0
0	28	10.178522957092	1
0	31	10.488162937289	0
0	38	11.245212648073	1
0	40	11.905222680326	2
0	41	12.080834599704	1
0	47	13.206457797598	0
0	67	19.978357061431	1
0	68	20.533166860739	0
0	74	20.597470875821	1
0	75	21.252228544764	0
0	84	22.214366352583	1
0	92	27.157266858636	2
0	93	27.528488461265	1
0	99	28.618516334965	0
0	129	35.351697561256	1
0	138	45.022911831159	0
0	150	46.093841315554	1
0	155	50.252263383708	2
0	156	50.886586965444	1
0	161	51.227751214028	0
0	173	54.720680727074	1
0	176	54.835735596558	2
0	178	57.683413545544	1
0	186	61.818831908343	0
0	212	68.525617518389	1
0	214	72.031699783681	2
0	216	73.284256742195	3
0	218	75.16439523131	4
0	219	76.820897882329	3
0	226	81.596455596085	2
0	231	82.53564131534	1
0	237	83.5553133332	2
0	238	83.714174554382	1
0	243	83.841654185776	0
0	293	110.752615015276	1
0	295	111.467699259099	2
0	298	114.869917777556	1
0	306	117.41945084937	0
0	339	130.386233397295	1
0	341	132.347455159102	0
0	360	139.01166126979	1
0	361	140.227868979424	0
0	370	140.517368894599	1
0	373	142.1512290224	0
0	385	144.904962856666	1
0	387	145.024179899106	2
0	390	148.898989297653	3
0	393	149.78638391608	2
0	401	151.995976336495	1
0	406	153.88318960413	0
0	438	170.365252133901	1
0	439	170.405217552945	0
0	448	170.855805024018	1
0	451	171.850878116314	0
0	466	174.137164104086	1
0	468	174.310544507978	2
0	473	177.555103312759	1
0	478	177.838381089334	0
0	486	179.691216818156	1
0	488	180.224865672504	2
0	489	182.156154616886	1
0	494	182.888656509595	0
0	502	183.265295189052	1
0	503	185.276659512439	0
0	514	192.281077436316	1
0	516	192.621711889281	2
0	518	192.828263902242	3
0	524	195.833790533601	2
0	530	196.323658251667	3
0	532	196.34036472571	4
0	534	196.682735004726	5
0	540	198.526739695744	6
0	544	200.152394953107	5
0	550	200.390475696401	4
0	563	204.662446045172	5
0	565	206.374552107645	6
0	567	206.445311555417	7
0	568	207.005659041649	6
0	574	208.476578463544	5
0	580	209.035710866347	4
0	586	209.541377550991	3
0	593	210.474236191146	2
0	600	211.345374170884	1
0	607	212.826364631283	0
0	614	215.161513271894	1
0	615	217.232213945967	0
0	629	219.525101994883	1
0	630	220.142424850101	0
0	639	222.220511448654	1
0	644	224.302957590077	2
0	647	228.999667769902	1
0	653	231.478487287549	0
0	672	236.582211194862	1
0	673	236.928505458675	0
0	683	238.283972524944	1
0	687	244.107775658091	2
0	688	245.079993767916	1
0	693	245.190274530299	0
0	706	248.850780894182	1
0	712	250.882786032644	2
0	718	255.835977807204	3
0	721	259.66994630684	2
0	728	261.784628840856	1
0	734	262.101288046887	2
0	738	265.784080640956	3
0	739	267.040938580227	2
0	745	267.465475751588	3
0	748	269.284096505133	4
0	751	270.039247385008	3
0	757	270.301727535687	4
0	758	271.370625902023	3
0	763	271.668566397338	2
0	773	275.099357092743	1
0	781	277.579388323975	2
0	784	278.125710324391	1
0	790	278.485193428186	2
0	791	278.962322920782	1
0	797	278.969435825116	2
0	798	280.358777701363	1
0	809	282.491434701307	2
0	813	283.57910173507	3
0	814	283.759530597967	2
0	819	283.850267990718	1
0	823	284.324785035981	2
0	829	288.213015968128	1
0	835	292.127791782424	0
0	841	292.128730666631	1
0	843	295.028533896389	0
0	865	298.043317402121	1
0	866	298.6775153014	0
0	878	299.207245243712	1
0	879	299.764519583036	0
0	885	300.894675967141	1
0	890	303.402002294211	0
0	912	310.110115725728	1
0	917	312.766627590541	0
0	943	316.809656973374	1
0	944	317.404862917121	0
0	954	320.997090053446	1
0	960	326.30434859126	2
0	963	328.863233392318	1
0	971	332.159267584582	2
0	972	332.369911034872	1
0	977	332.565767696936	0
0	999	340.012330510524	1
0	1004	340.339973155628	0
0	1010	340.587482113644	1
0	1011	341.607471121815	0
0	1030	343.21684920225	1
0	1034	344.901584591563	2
0	1039	352.183102164462	1
0	1044	352.797881890322	0
0	1067	363.234908067718	1
0	1072	365.092228804326	2
0	1073	365.16795657179	1
0	1079	366.658394209597	0
0	1088	368.486419372997	1
0	1090	371.493278686712	2
0	1091	373.248866284305	1
0	1097	373.766820343522	0
0	1106	376.649596233032	1
0	1112	377.316025933165	2
0	1114	377.553796145331	3
0	1115	381.402830179595	2
0	1120	381.699308710243	1
0	1126	382.887296103997	0
0	1132	383.034015887502	1
0	1135	386.874495546901	0
0	1172	403.584818281429	1
0	1175	404.222412976903	0
0	1187	407.610292416283	1
0	1191	409.703700545834	2
0	1194	415.641293870542	1
0	1199	415.900929851374	0
0	1206	416.238142729846	1
0	1210	419.798477635755	0
0	1225	424.605202318003	1
0	1232	425.788825702822	2
0	1233	427.055733601382	1
0	1239	427.107534776413	2
0	1242	429.365214321206	1
0	1248	430.798361201156	0
0	1256	433.307968075147	1
0	1259	436.206280101303	0
0	1270	444.771049152109	1
0	1273	445.309767326655	0
0	1282	447.007114083124	1
0	1285	447.567079743108	0
0	1311	456.747075965872	1
0	1312	457.641927334387	0
0	1334	460.940725128047	1
0	1335	464.259225459373	0
0	1352	467.190317924701	1
0	1357	470.204901408521	0
0	1376	472.949633830439	1
0	1377	473.071497713365	0
0	1387	484.157561226255	1
0	1391	485.847997957106	2
0	1396	487.34838857628	1
0	1401	487.712380768674	0
0	1415	489.159857791201	1
0	1417	489.548602081981	2
0	1421	491.948288191049	1
0	1427	494.182667881671	2
0	1429	494.546194389787	3
0	1431	495.909315521547	2
0	1437	496.476126050286	3
0	1441	497.016100061534	4
0	1443	497.114615392221	5
0	1444	497.326469716029	4
0	1452	498.384662238816	3
0	1459	500.239728800805	2
0	1465	501.24195452875	1
0	1470	501.942668384253	0
0	1479	503.197521107619	1
0	1481	503.515216238093	0
0	1506	509.900559469149	1
0	1507	511.690346078098	0
0	1514	512.45352518851	1
0	1515	514.824647947091	0
0	1522	516.079202100553	1
0	1525	517.185978651922	0
0	1547	520.591378479952	1
0	1549	521.716787421401	2
0	1553	522.321318119944	3
0	1557	523.387964916208	4
0	1560	524.392577000121	3
0	1565	525.092738250056	2
0	1572	527.843874176289	1
0	1578	528.533107616261	0
0	1595	531.679388873571	1
0	1598	533.521455969237	0
0	1621	540.679244524682	1
0	1626	543.953646916781	0
0	1633	547.883297508322	1
0	1635	549.285624729914	2
0	1636	549.546241433977	1
0	1642	552.852722333239	0
0	1650	559.160016617979	1
0	1654	560.892303128298	2
0	1657	561.3123627635	1
0	1663	561.455540641253	2
0	1664	561.621928928585	1
0	1675	567.254913944809	0
0	1681	567.275764096051	1
0	1683	568.388643294239	2
0	1684	569.569930073667	1
0	1692	572.080116442432	2
0	1696	575.506750386163	3
0	1697	576.016943759796	2
0	1703	577.571562476754	1
0	1711	578.330378932008	2
0	1715	578.962136078565	1
0	1721	583.978345351994	0
0	1737	584.336215942667	1
0	1739	584.478312684989	2
0	1741	586.69951231994	1
0	1747	587.052286661976	2
0	1749	588.510832258161	1
0	1755	588.652997309471	2
0	1756	588.68360743968	1
0	1766	591.264820902181	2
0	1767	592.089360093929	1
0	1774	593.667912884802	2
0	1775	594.336053568006	1
0	1783	598.145446158238	0
0	1789	598.450996792546	1
0	1790	598.545877175226	0
0	1808	604.589497415044	1
0	1816	607.861301412539	0
0	1822	608.309564902079	1
0	1824	609.449665098745	0
0	1830	609.738325756219	1
0	1832	611.352771930525	0
0	1852	618.279754553044	1
0	1854	620.476493643966	2
0	1856	621.448465665174	3
0	1858	624.554441287486	4
0	1859	625.007602341934	3
0	1865	627.078576894724	2
0	1870	630.180941678017	1
0	1876	631.364320771029	0
0	1886	636.381635699234	1
0	1888	637.90184672011	0
0	1910	643.722704940896	1
0	1911	643.723870652833	0
0	1924	647.000432422475	1
0	1926	648.937355392439	2
0	1930	655.151777099547	1
0	1936	655.764213472071	2
0	1939	657.385300764957	3
0	1940	658.80394214648	2
0	1945	659.658408897569	1
0	1951	662.080618110307	0
0	1973	668.709656839638	1
0	1974	671.206207275532	0
0	2013	686.984761808354	1
0	2014	690.078259271922	0
0	2025	692.286226382574	1
0	2026	692.371514646905	0
0	2032	693.19824527352	1
0	2035	695.350438289445	0
0	2051	704.548012675173	1
0	2053	707.814450096333	0
0	2081	712.331149707174	1
0	2082	713.447583330362	0
0	2102	718.322343136469	1
0	2104	719.251286381077	2
0	2105	720.311230738837	1
0	2112	721.445250293064	2
0	2118	723.257392686172	3
0	2119	723.897153540876	2
0	2124	723.904274592336	1
0	2129	724.483758949685	0
0	2133	724.971760782004	1
0	2135	728.668566408399	2
0	2139	729.692332102373	3
0	2140	730.256323269157	2
0	2147	732.08923805411	3
0	2149	734.795747592203	2
0	2154	735.715594280028	1
0	2159	736.437647426021	0
0	2167	738.789812089872	1
0	2169	739.273579842574	0
0	2215	755.005836885877	1
0	2216	756.262949468442	0
0	2223	757.927078199832	1
0	2224	758.994289861519	0
0	2238	763.419086585117	1
0	2240	764.483682139966	2
0	2241	765.294700054291	1
0	2249	766.10876353124	0
0	2256	768.328390397271	1
0	2257	770.001110287965	0
0	2297	785.015869107985	1
0	2302	786.567866657034	0
0	2309	788.508859433132	1
0	2310	791.523553342555	0
0	2317	792.234561428215	1
0	2318	793.951649007489	0
0	2328	798.410982683277	1
0	2332	801.461215507274	0
0	2339	803.904322446501	1
0	2344	810.678438581106	0
0	2355	811.37048476495	1
0	2360	812.691510417115	0
0	2367	813.462261371526	1
0	2370	816.148072455279	0
0	2388	820.40169512292	1
0	2391	821.995136580429	2
0	2392	822.626658089016	1
0	2397	822.641292165423	0
0	2410	825.23871726205	1
0	2412	825.753342392084	0
0	2438	832.387270331692	1
0	2439	833.268679767384	0
0	2449	836.17289966635	1
0	2450	836.18815974232	0
0	2470	838.660281961627	1
0	2472	838.768823131726	2
0	2476	840.068498171873	3
0	2479	842.432848334587	2
0	2484	842.634108848051	1
0	2489	842.653085294997	0
0	2495	843.477403635614	1
0	2496	843.50118492778	0
0	2513	847.998819263748	1
0	2515	848.140630401812	2
0	2517	848.58450862264	3
0	2518	850.012843140201	2
0	2523	850.220487348924	1
0	2530	851.699321847194	2
0	2531	853.533242239507	1
0	2538	857.243202913762	0
0	2565	870.799458731675	1
0	2569	871.510677940354	2
0	2573	874.603574024713	3
0	2574	874.714979012287	2
0	2580	876.206713388806	1
0	2585	876.806796826803	0
0	2593	877.501288531082	1
0	2595	879.461977345716	0
0	2618	889.996685327202	1
0	2621	891.61107217168	0
0	2641	901.835189287422	1
0	2644	902.675570999884	0
0	2658	907.870774675279	1
0	2660	908.625683134279	2
0	2661	912.99764969544	1
0	2667	914.075949095222	2
0	2670	914.797100459632	3
0	2671	915.896980183623	2
0	2680	917.180180078614	1
0	2686	918.605657816585	2
0	2688	922.014951594063	1
0	2694	922.817955758739	2
0	2697	924.269935160336	3
0	2700	925.96549600259	2
0	2707	927.712660756097	3
0	2709	928.437094983969	4
0	2710	930.550199648565	3
0	2716	930.798320257024	4
0	2718	932.035351006906	3
0	2723	932.758311223894	2
0	2728	933.314205652202	1
0	2734	933.36522619351	2
0	2736	934.112032684752	1
0	2741	934.241717156821	0
0	2752	935.745309786258	1
0	2754	937.371367583774	0
0	2763	938.208544920121	1
0	2766	939.614263664833	0
0	2770	939.760359461606	1
0	2778	943.718044216078	2
0	2782	945.986315424293	1
0	2787	947.269347784912	0
0	2808	953.140826290768	1
0	2811	955.114411592293	0
0	2825	957.656504075922	1
0	2826	958.545911238692	0
0	2838	963.00338259503	1
0	2839	964.022764204135	0
0	2845	964.294346488252	1
0	2849	966.326749015876	0
0	2871	977.679734002056	1
0	2873	980.361530223703	2
0	2874	981.632047702298	1
0	2880	981.682861776021	2
0	2881	982.113001212222	1
0	2889	984.172048501983	2
0	2890	984.914272478517	1
0	2896	985.248321090786	2
0	2897	985.780524120359	1
0	2902	985.986093206163	0
0	2910	988.784481559758	1
0	2911	988.888229576857	0
0	2915	989.256267288111	1
0	2919	990.068502398183	2
0	2925	991.625729813106	3
0	2927	993.17250172825	4
0	2929	993.180101175528	5
0	2931	994.262154988601	4
0	2938	996.481774286045	5
0	2941	999.431144609121	4
0	2947	1000.309278504008	3
0	2957	1002.321849443857	2
0	2964	1002.628650597258	3
0	2966	1003.481111085115	2
0	2971	1004.282056286828	1
0	2976	1004.830548510137	0
0	2982	1005.505155013269	1
0	2983	1006.713357182184	0
0	3011	1015.206199885744	1
0	3013	1015.800778405246	2
0	3014	1016.181409267598	1
0	3022	1018.335914360833	0
0	3028	1018.336615030013	1
0	3029	1018.581118752878	0
0	3041	1019.55806602197	1
0	3043	1021.654893801074	2
0	3046	1021.814741096137	3
0	3048	1024.719409835546	2
0	3054	1026.413376111511	1
0	3061	1028.044237003618	0
0	3067	1028.959220825914	1
0	3068	1029.760532537504	0
0	3082	1031.739442947121	1
0	3087	1033.915012969308	2
0	3089	1034.433392528623	3
0	3090	1034.508891605688	2
0	3095	1034.657807007137	1
0	3100	1036.64526409152	0
0	3106	1037.476091505978	1
0	3110	1039.685702850627	0
0	3119	1043.117258524774	1
0	3121	1043.343603923172	2
0	3125	1043.864509685759	3
0	3127	1045.057362211861	4
0	3131	1046.018628956083	5
0	3132	1047.042491685008	4
0	3138	1048.536425530396	5
0	3144	1049.715370322697	4
0	3152	1050.651712259002	3
0	3158	1051.60788350323	4
0	3161	1051.852393672144	3
0	3167	1052.764509483076	2
0	3176	1053.977820304013	3
0	3178	1054.107543931543	4
0	3180	1056.207169720025	3
0	3186	1057.758587673396	2
0	3191	1057.90913742381	1
0	3197	1061.034426369572	0
0	3215	1064.799659691337	1
0	3216	1065.892798824861	0
0	3224	1067.587666399678	1
0	3227	1068.027841717679	2
0	3229	1068.751040253466	1
0	3235	1069.936810930102	0
0	3249	1072.589329876787	1
0	3255	1075.98348874924	0
0	3276	1080.186570061793	1
0	3277	1081.838218073163	0
0	3284	1085.327273211298	1
0	3288	1088.160426725163	2
0	3290	1088.397076911226	3
0	3291	1088.795208007958	2
0	3296	1089.801376499253	1
0	3302	1090.851986850165	2
0	3305	1093.033468765013	1
0	3310	1094.299267500968	0
0	3320	1095.055376580053	1
0	3322	1095.953446081905	2
0	3324	1096.059841294899	3
0	3326	1103.74961798973	4
0	3332	1104.193876668085	5
0	3336	1105.499659849192	4
0	3342	1107.781544922617	5
0	3344	1109.521034684148	4
0	3350	1110.449574540858	5
0	3352	1110.953631824251	6
0	3353	1111.520557874072	5
0	3358	1111.706696991049	4
0	3364	1111.931316946268	5
0	3369	1115.468065569711	4
0	3375	1116.841549737195	3
0	3384	1119.893012395244	4
0	3390	1124.100046508581	3
0	3398	1126.170775694729	2
0	3405	1129.328869506656	1
0	3412	1129.750587348297	0
0	3419	1131.256602239661	1
0	3420	1134.369265195574	0
0	3431	1135.305426246232	1
0	3435	1137.319365364451	0
0	3451	1139.484710317905	1
0	3452	1139.660220841536	0
0	3467	1143.102125501696	1
0	3471	1147.362656413403	2
0	3472	1147.392394451258	1
0	3477	1147.679581678344	0
0	3485	1149.257979804668	1
0	3488	1149.671466575825	0
0	3495	1151.693058197582	1
0	3497	1152.030814760294	2
0	3499	1152.771320671988	3
0	3501	1153.072270978332	4
0	3504	1153.697984906673	3
0	3509	1153.857665876091	2
0	3518	1156.112245538102	1
0	3524	1156.432088176391	0
0	3564	1172.75471364607	1
0	3565	1174.299417969388	0
0	3578	1175.343474679837	1
0	3582	1179.338137300606	0
0	3591	1184.944139811553	1
0	3596	1187.437939462851	0
0	3610	1194.084392505875	1
0	3613	1195.814737630535	0
0	3623	1199.547939313559	1
0	3624	1201.061633376896	0
0	3633	1206.90274154575	1
0	3634	1206.963310534842	0
0	3656	1212.361974475997	1
0	3658	1213.157128102599	2
0	3659	1213.223855857295	1
0	3665	1213.586829232066	0
0	3680	1216.312865049788	1
0	3686	1222.852148734956	0
0	3692	1222.919739674475	1
0	3693	1224.951577121949	0
0	3707	1229.152156700727	1
0	3709	1231.477518349551	0
0	3725	1234.124594346374	1
0	3728	1234.322720041603	0
0	3748	1241.889803788397	1
0	3750	1242.997138586486	2
0	3753	1244.675846169211	1
0	3764	1245.411522589714	0
0	3787	1252.549548941589	1
0	3792	1254.146920770956	0
0	3805	1261.18572688055	1
0	3807	1263.320518999493	2
0	3808	1263.892313990664	1
0	3814	1264.133352709438	0
0	3831	1273.558458169293	1
0	3835	1274.35417908939	2
0	3836	1274.518145274828	1
0	3842	1277.192399321484	2
0	3845	1278.459834055918	3
0	3846	1279.14151096752	2
0	3852	1280.53845722767	1
0	3862	1284.021960769253	0
0	3877	1288.209184540325	1
0	3880	1291.726585296381	0
0	3899	1297.800099518467	1
0	3901	1298.049426786836	2
0	3902	1298.413771277314	1
0	3914	1300.670975991474	0
0	3924	1301.994015766725	1
0	3929	1310.842664574787	0
0	3940	1311.535632516922	1
0	3942	1311.881341265705	2
0	3943	1312.20557481107	1
0	3950	1313.130611809543	2
0	3955	1317.206035689626	3
0	3956	1318.332298694984	2
0	3963	1319.393839088221	1
0	3968	1319.999095110187	0
0	3984	1324.67167976091	1
0	3986	1326.88002165332	0
0	3998	1331.894862233584	1
0	4001	1332.968005532118	0
0	4012	1335.108025935141	1
0	4013	1335.219119183484	0
0	4022	1336.771558619276	1
0	4025	1338.981502331658	0
0	4062	1350.605089082976	1
0	4064	1351.407849430777	2
0	4072	1359.320601896161	3
0	4074	1359.522719877535	4
0	4076	1359.640214715039	5
0	4077	1361.648368974183	4
0	4083	1362.599985804901	5
0	4089	1366.556748190225	6
0	4090	1368.384067808961	5
0	4095	1368.38976408818	4
0	4100	1369.972757004311	3
0	4107	1371.088489922486	4
0	4110	1373.640266501529	3
0	4116	1373.735291355881	4
0	4117	1373.976040107049	3
0	4122	1374.006667988537	2
0	4126	1374.713405283251	3
0	4131	1376.457407076037	2
0	4139	1381.543375330405	3
0	4142	1382.151753734356	4
0	4145	1384.892160880476	3
0	4152	1388.257198841149	2
0	4158	1392.956535329839	3
0	4160	1393.310639048744	4
0	4162	1395.039683643854	3
0	4170	1400.28687563572	2
0	4176	1402.219357628509	3
0	4177	1404.207997532306	2
0	4183	1404.958776110701	1
0	4189	1405.347672302896	2
0	4190	1405.376407254366	1
0	4195	1405.63701698538	0
0	4220	1409.352111986684	1
0	4221	1410.385714564109	0
0	4235	1411.679312820739	1
0	4239	1415.238861801126	2
0	4240	1416.409607845314	1
0	4248	1417.283576043988	0
0	4284	1433.212157879911	1
0	4287	1437.250579501739	0
0	4299	1439.088037768707	1
0	4306	1451.08794773227	0
0	4318	1453.14711787321	1
0	4322	1460.52983905588	0
0	4333	1461.393190096345	1
0	4339	1463.603006457807	0
0	4370	1476.186230111166	1
0	4373	1476.955843675989	0
0	4397	1482.293623856966	1
0	4398	1483.370666652474	0
0	4420	1490.38166883779	1
0	4423	1492.935937109033	0
0	4436	1495.624827336989	1
0	4440	1496.47978172921	2
0	4444	1499.818743111769	3
0	4445	1500.565088165038	2
0	4452	1506.26782965479	3
0	4458	1508.532139027578	4
0	4459	1511.386149001221	3
0	4464	1511.582807547564	2
0	4470	1512.102031570087	3
0	4474	1515.604578633983	4
0	4476	1516.436338793012	5
0	4477	1517.140150104194	4
0	4482	1518.11889813026	3
0	4490	1519.900319568617	2
0	4498	1521.526478876203	1
0	4503	1522.46413609074	0
0	4509	1522.5652764015	1
0	4513	1523.153398088713	2
0	4515	1524.34235892622	1
0	4525	1529.434209504992	2
0	4531	1530.828134023516	1
0	4537	1531.162415346703	2
0	4538	1531.888350496757	1
0	4545	1533.045995737388	2
0	4547	1537.212521049745	3
0	4549	1538.346668913945	4
0	4551	1538.72795171864	5
0	4553	1540.694834343666	6
0	4555	1541.070033859905	7
0	4556	1541.66326348094	6
0	4563	1543.073339458459	5
0	4575	1550.503052517227	4
0	4583	1551.398805886841	5
0	4584	1551.602318889971	4
0	4589	1551.665442366064	3
0	4595	1552.651808483362	4
0	4596	1556.521199216962	3
0	4606	1559.477891616285	4
0	4610	1559.652909790493	3
0	4615	1561.101480948392	2
0	4620	1561.416436126396	1
0	4625	1562.249819857532	0
0	4637	1566.370602944123	1
0	4641	1567.581831232609	2
0	4642	1569.20726574673	1
0	4650	1570.623007565215	0
0	4657	1571.370905753463	1
0	4658	1573.378377073068	0
0	4678	1581.090141041728	1
0	4686	1585.036826733815	2
0	4687	1585.595539691668	1
0	4693	1587.734563186655	0
0	4707	1592.154299891199	1
0	4708	1592.570429186851	0
0	4722	1596.253265838686	1
0	4724	1598.140968665428	2
0	4725	1599.029363911057	1
0	4730	1599.413295805044	0
0	4742	1601.266436687614	1
0	4749	1602.214087952143	2
0	4750	1602.691822293867	1
0	4756	1604.576882889513	0
0	4789	1615.394503314841	1
0	4790	1615.796929227732	0
0	4812	1620.899170761251	1
0	4814	1621.697307931359	2
0	4818	1622.645647506991	1
0	4826	1625.258450807206	0
0	4851	1631.133586430358	1
0	4856	1633.133903717658	2
0	4860	1636.94010544209	3
0	4861	1637.68455615302	2
0	4874	1640.994168609802	3
0	4875	1641.07804596498	2
0	4881	1641.377028076571	3
0	4883	1643.70799208028	2
0	4892	1645.575515221866	1
0	4899	1646.446014250676	2
0	4901	1647.692927470399	3
0	4902	1649.273844749496	2
0	4907	1650.091324224296	1
0	4912	1650.382656554661	0
0	4919	1650.615222798153	1
0	4920	1650.652941123013	0
0	4927	1651.407968603444	1
0	4928	1651.751114411456	0
0	4978	1673.729714711924	1
0	4979	1673.881686973259	0
0	5004	1683.081422967	1
0	5008	1685.092852231614	0
0	5014	1685.207406311016	1
0	5016	1686.657179498125	0
0	5027	1689.238783284494	1
0	5033	1692.576882689651	0
0	5048	1695.952808931442	1
0	5052	1697.707810259654	0
0	5060	1699.269581748493	1
0	5065	1702.408984286426	2
0	5067	1704.029112518756	1
0	5073	1704.191907789393	0
0	5085	1706.527599468038	1
0	5088	1707.30845227331	2
0	5089	1708.861261454269	1
0	5096	1709.057126392426	0
0	5104	1718.090872384238	1
0	5106	1719.480820891418	2
0	5107	1720.072191988857	1
0	5113	1720.610512558405	2
0	5118	1724.664240296298	1
0	5124	1725.057527065117	2
0	5125	1726.07502369637	1
0	5132	1730.192571968054	0
0	5164	1742.588104770898	1
0	5165	1744.851655809856	0
0	5176	1747.203442616993	1
0	5177	1750.35094862478	0
0	5183	1750.797628011359	1
0	5187	1752.799495502569	2
0	5190	1753.315437024321	1
0	5198	1756.830801743053	2
0	5200	1758.075158333179	3
0	5203	1759.785035010021	2
0	5209	1761.825599726328	1
0	5217	1762.392636915075	2
0	5220	1764.834257639097	3
0	5223	1774.166499963184	2
0	5228	1774.248969987679	1
0	5234	1774.438130189523	2
0	5237	1775.15344646965	3
0	5240	1776.900986406819	4
0	5241	1778.927530998948	3
0	5247	1779.063581871597	2
0	5253	1780.973531770736	1
0	5259	1781.937104769208	2
0	5260	1782.316523126808	1
0	5265	1783.212888718941	0
0	5272	1785.221363426075	1
0	5273	1788.713378130131	0
0	5332	1807.950411945432	1
0	5333	1808.435720408403	0
0	5345	1812.634935503239	1
0	5346	1814.498812621697	0
0	5352	1814.640914942431	1
0	5354	1815.684700946379	0
0	5377	1821.181574051747	1
0	5380	1822.681450502347	0
0	5387	1824.640675610427	1
0	5388	1824.683188004886	0
0	5400	1828.922275839293	1
0	5409	1833.8778849416	0
0	5430	1838.809143539125	1
0	5431	1840.511151153409	0
0	5437	1841.474096366159	1
0	5442	1844.107399492857	2
0	5443	1844.22958042542	1
0	5448	1844.448463326532	0
0	5466	1846.361205677755	1
0	5468	1848.621846546029	2
0	5471	1851.171593739274	3
0	5476	1852.011477496367	2
0	5482	1853.71581890875	1
0	5488	1854.063576236787	2
0	5489	1854.167122426028	1
0	5494	1854.444988658178	0
0	5513	1860.726001915912	1
0	5515	1861.895827581751	2
0	5518	1863.146840125485	3
0	5520	1865.627225101351	4
0	5528	1871.924400267075	5
0	5529	1872.904157418683	4
0	5534	1873.202395811824	3
0	5542	1875.46368961993	4
0	5543	1875.563832905289	3
0	5549	1876.920712519876	2
0	5559	1879.199596788042	1
0	5569	1883.440694914889	0
0	5596	1885.678601512465	1
0	5597	1885.879378695227	0
0	5608	1891.995240853217	1
0	5610	1892.559794434938	2
0	5611	1893.507737240276	1
0	5619	1894.039647161046	2
0	5621	1894.549424768413	3
0	5624	1897.648198223743	2
0	5632	1899.136638228094	1
0	5644	1906.079957256523	0
0	5661	1910.048638139946	1
0	5662	1912.014014241288	0
0	5690	1918.60897764363	1
0	5691	1921.81506924034	0
0	5727	1928.04564941243	1
0	5730	1928.69684476884	0
0	5742	1932.805304353603	1
0	5743	1934.344489050716	0
0	5773	1946.56428482097	1
0	5778	1950.634346413624	0
0	5790	1952.279261220029	1
0	5791	1955.116029597282	0
0	5797	1956.127946188622	1
0	5799	1956.943250271116	2
0	5801	1958.125860754814	1
0	5807	1958.743754246813	2
0	5808	1959.784373609035	1
0	5813	1960.06011276689	0
0	5819	1960.13221797806	1
0	5820	1960.332216527758	0
0	5826	1960.995951576748	1
0	5832	1962.780568140573	2
0	5833	1963.738176514554	1
0	5838	1964.280900053902	0
0	5849	1965.2721926704	1
0	5859	1967.677399275423	2
0	5863	1969.422566462578	1
0	5868	1969.822604698877	0
0	5881	1971.965245092214	1
0	5885	1973.611443427462	2
0	5887	1973.678787187874	3
0	5889	1973.717419449574	4
0	5892	1975.104925772563	3
0	5898	1975.757433869141	4
0	5900	1976.193572067013	5
0	5902	1976.35491249142	6
0	5903	1976.65204490223	5
0	5908	1977.997916889394	4
0	5916	1979.633499432099	5
0	5920	1984.449780496784	4
0	5929	1987.557877400841	3
0	5934	1987.941892807005	2
0	5942	1990.806147898283	1
0	5949	1992.25802880011	0
0	5967	1997.645746738016	1
0	5972	2000.441793591796	0
0	5986	2002.276679974323	1
0	5992	2005.327590470924	2
0	5993	2005.41940393955	1
0	5998	2005.698487183198	0
0	6004	2006.580881198426	1
0	6006	2007.347485622182	0
0	6022	2010.364554442695	1
0	6023	2010.844070881679	0
0	6031	2012.177294466477	1
0	6032	2013.514804716376	0
0	6038	2013.647860676192	1
0	6041	2015.310406962948	2
0	6045	2016.660552122355	1
0	6051	2017.59473712157	0
0	6062	2018.713028779276	1
0	6063	2019.209679974735	0
0	6097	2028.972280099288	1
0	6099	2029.068100565166	2
0	6102	2031.020593780041	1
0	6111	2034.147985351248	0
0	6126	2037.091163283031	1
0	6128	2037.808964582479	2
0	6130	2040.327120922647	3
0	6131	2042.853044016103	2
0	6137	2043.346993393912	3
0	6143	2047.495778012496	2
0	6149	2047.716247578411	3
0	6151	2047.879996122174	4
0	6153	2048.79284454096	5
0	6154	2049.104776375242	4
0	6162	2050.43003987408	5
0	6163	2051.434105214149	4
0	6168	2051.831255990047	3
0	6173	2052.050346596758	2
0	6179	2052.647949227575	3
0	6184	2057.831572117284	2
0	6189	2058.140665682529	1
0	6196	2060.832610912702	0
0	6221	2065.482655129677	1
0	6223	2067.353892587108	2
0	6224	2068.664592667234	1
0	6231	2068.9289646046	2
0	6234	2071.030087467927	1
0	6242	2073.675316036207	0
0	6261	2078.711143837415	1
0	6264	2082.431508746002	0
0	6276	2084.840627860299	1
0	6280	2087.232871031868	2
0	6286	2089.557968156893	1
0	6292	2090.582909424217	2
0	6294	2091.265041242481	1
0	6300	2092.357370426769	0
0	6307	2093.442186508521	1
0	6311	2095.633608865122	2
0	6312	2096.128457100875	1
0	6318	2097.349776506774	0
0	6352	2113.785223693205	1
0	6354	2116.422861094809	2
0	6355	2116.49292112529	1
0	6361	2117.24592700217	0
0	6371	2120.935955240937	1
0	6375	2121.415184635781	2
0	6380	2123.479335365961	1
0	6388	2125.929394476353	0
0	6397	2126.698235547258	1
0	6401	2128.876254158925	2
0	6408	2133.186346061003	3
0	6409	2133.929730008829	2
0	6414	2134.582775252284	1
0	6422	2140.411398839641	2
0	6423	2141.693224176296	1
0	6429	2141.705361657941	0
0	6436	2143.570103721853	1
0	6439	2146.059618781242	0
0	6448	2146.58015528476	1
0	6453	2146.849604943653	2
0	6454	2148.574456551708	1
0	6462	2153.95158712703	0
0	6500	2170.200798761333	1
0	6507	2172.953063635064	2
0	6510	2177.256005816645	1
0	6521	2181.812004117547	0
0	6546	2188.263092091237	1
0	6547	2189.819862223043	0
0	6576	2195.547248020115	1
0	6578	2199.324353297016	2
0	6579	2200.383646395537	1
0	6586	2201.996496094235	0
0	6601	2205.419933922122	1
0	6605	2207.724086972512	2
0	6609	2208.433389373174	3
0	6610	2208.696903528899	2
0	6616	2208.911359293759	3
0	6618	2210.18640930549	2
0	6626	2212.338721266806	1
0	6635	2215.613284210909	0
0	6641	2215.685512693893	1
0	6642	2216.643323041126	0
0	6650	2217.621374127146	1
0	6651	2218.157551684675	0
0	6669	2220.911962318974	1
0	6672	2223.819354039146	0
0	6680	2227.999060529342	1
0	6682	2228.454361625199	2
0	6684	2232.470010842894	3
0	6687	2234.013447872072	2
0	6695	2238.298230157637	3
0	6698	2240.11121479552	2
0	6704	2240.315265251546	3
0	6705	2241.755140893564	2
0	6711	2242.240476509335	3
0	6713	2242.562632342039	4
0	6715	2242.574955361097	5
0	6718	2244.983121866565	4
0	6727	2246.882148173247	5
0	6729	2247.019198927239	4
0	6735	2247.934892695942	3
0	6743	2249.21336163913	2
0	6750	2250.736853207489	1
0	6756	2251.870880283824	2
0	6757	2252.388186937689	1
0	6764	2253.105879720568	0
0	6783	2258.405563478359	1
0	6785	2260.405522560007	2
0	6788	2261.091648954143	1
0	6793	2261.975595031751	0
0	6826	2271.493652668769	1
0	6827	2272.264988117475	0
0	6860	2283.160201913497	1
0	6861	2283.723937804906	0
0	6881	2287.970218962268	1
0	6882	2288.656091683921	0
0	6891	2291.492179532217	1
0	6897	2300.758858574059	2
0	6898	2301.836648324782	1
0	6905	2302.112095665724	0
0	6922	2307.705323303253	1
0	6924	2310.256368108919	2
0	6926	2310.744875979176	3
0	6928	2311.401394767623	4
0	6929	2312.641240906757	3
0	6934	2312.641497430046	2
0	6943	2314.316301714349	1
0	6949	2314.718892622351	2
0	6950	2315.627131665375	1
0	6957	2317.103524028346	2
0	6958	2317.786893126061	1
0	6966	2320.082423757891	0
0	6974	2321.412652880017	1
0	6977	2322.062091439605	2
0	6980	2323.188218580574	3
0	6981	2323.614901769807	2
0	6992	2330.23857323323	3
0	6993	2330.738221996591	2
0	7000	2332.262243938179	3
0	7003	2333.32455666087	2
0	7008	2334.371906156659	1
0	7015	2334.842694597861	2
0	7016	2336.801880808891	1
0	7026	2341.680204210263	2
0	7027	2343.224752842156	1
0	7032	2343.417627037257	0
0	7040	2346.809479039772	1
0	7041	2347.297790839243	0
0	7052	2350.744649064536	1
0	7055	2351.428387964629	0
0	7063	2355.61606192931	1
0	7066	2356.620779668434	0
0	7076	2360.283886305866	1
0	7079	2361.075849151327	0
0	7102	2367.042535396198	1
0	7104	2367.704278624796	2
0	7105	2368.14432052458	1
0	7112	2369.466868627713	2
0	7114	2369.709433345717	3
0	7116	2370.036922945129	4
0	7117	2372.147813504432	3
0	7124	2378.025188686603	2
0	7130	2380.551725347629	1
0	7136	2382.433410947879	0
0	7142	2382.871755906253	1
0	7144	2383.491056922487	0
0	7159	2386.384334967621	1
0	7165	2392.64966490599	0
0	7192	2400.608131955518	1
0	7195	2400.877220723412	0
0	7209	2403.923787743692	1
0	7211	2404.312829162554	2
0	7213	2405.152840032915	3
0	7217	2406.260533356479	2
0	7224	2406.5730528125	1
0	7229	2407.087289121386	0
0	7240	2413.008514216238	1
0	7243	2414.388225966151	0
0	7263	2418.818883791367	1
0	7273	2421.677902650129	2
0	7275	2424.838185893811	3
0	7277	2425.116029059444	4
0	7278	2425.545564428385	3
0	7286	2429.664245219091	2
0	7292	2430.229069509589	3
0	7293	2430.854532314882	2
0	7298	2431.705691738545	1
0	7304	2432.330273932806	0
0	7327	2440.531545627577	1
0	7328	2441.554361103251	0
0	7334	2441.89313528264	1
0	7335	2443.231654983221	0
0	7342	2445.294984430848	1
0	7344	2448.246882170007	0
0	7351	2448.7284870385	1
0	7352	2449.819074869971	0
0	7358	2450.18538001925	1
0	7360	2451.162779768642	2
0	7362	2451.810350053472	3
0	7366	2452.121996262646	4
0	7368	2452.66217109087	5
0	7369	2452.764168305856	4
0	7377	2456.671318841263	5
0	7378	2461.580966336119	4
0	7384	2461.757614822539	3
0	7390	2462.084744638324	4
0	7392	2464.105491774067	3
0	7397	2464.626719523962	2
0	7403	2467.321263082588	1
0	7410	2470.808351945804	0
0	7442	2480.903915129059	1
0	7444	2481.036243621178	2
0	7449	2483.198005943882	1
0	7458	2484.934332286079	0
0	7465	2485.152103544373	1
0	7466	2485.22887740635	0
0	7496	2497.071276291986	1
0	7497	2497.882297267865	0
0	7506	2502.088619563609	1
0	7507	2504.396487042753	0
0	7513	2504.780168009343	1
0	7515	2507.573043821247	0
0	7527	2509.791198546316	1
0	7530	2513.554242376689	0
0	7539	2516.979480268807	1
0	7543	2519.408223263014	2
0	7545	2526.736817271918	1
0	7551	2527.677377436916	2
0	7553	2527.862521256456	1
0	7559	2528.383189384104	0
0	7601	2544.827683809859	1
0	7606	2548.394911982705	2
0	7607	2550.650092273438	1
0	7613	2552.715340224508	0
0	7637	2567.641640002185	1
0	7640	2570.168295197594	0
0	7646	2570.2496151936	1
0	7649	2571.404126524619	2
0	7650	2571.495369096602	1
0	7659	2575.442996313945	0
0	7681	2585.031262161171	1
0	7684	2586.607900191789	0
0	7703	2592.171447075403	1
0	7706	2595.634714125868	0
0	7749	2612.088457240733	1
0	7750	2612.231958424267	0
0	7757	2615.098560898474	1
0	7758	2615.207383767253	0
0	7770	2619.887888637598	1
0	7777	2622.915406318282	0
0	7786	2623.734746299495	1
0	7789	2625.889403181101	2
0	7790	2628.146099750032	1
0	7795	2634.132383152802	0
0	7815	2642.04644036961	1
0	7817	2642.678106179823	2
0	7823	2643.793783239078	3
0	7827	2650.879050422452	4
0	7829	2651.084160972677	5
0	7833	2652.375928287904	6
0	7834	2652.878937859811	5
0	7840	2656.972883316086	4
0	7847	2658.784157861557	5
0	7851	2659.914087759767	6
0	7853	2660.364298600271	7
0	7858	2665.626337870747	6
0	7863	2666.071189392067	5
0	7872	2668.515908777096	4
0	7877	2668.649378156512	3
0	7885	2671.810505671497	2
0	7890	2672.287803837974	1
0	7895	2672.58704287164	0
0	7936	2687.866972390229	1
0	7940	2691.652734990187	2
0	7941	2692.078198638287	1
0	7947	2693.5148244531	0
0	7976	2701.763799844269	1
0	7977	2703.117755570288	0
0	8004	2710.72086915022	1
0	8005	2711.376675334406	0
0	8021	2715.749337238778	1
0	8022	2717.509324712882	0
0	8043	2721.922001690697	1
0	8046	2724.815434842187	0
0	8059	2732.478379459143	1
0	8061	2734.32792301724	2
0	8065	2735.775972177935	3
0	8067	2738.050015891904	4
0	8069	2738.683675734005	3
0	8076	2740.03104528182	4
0	8077	2740.380454900331	3
0	8082	2741.447846976257	2
0	8087	2742.115072878528	1
0	8091	2742.398294476783	2
0	8093	2744.420210836736	3
0	8100	2746.294673517538	4
0	8101	2746.373041167359	3
0	8106	2746.41648289705	2
0	8112	2746.766047779346	3
0	8118	2747.384324452681	2
0	8127	2751.00663972759	3
0	8128	2751.99789885827	2
0	8134	2753.023967333967	1
0	8140	2753.703684787084	0
0	8152	2756.263981897562	1
0	8154	2757.186533235278	2
0	8155	2758.517250127892	1
0	8161	2759.818725263246	0
0	8167	2759.834492912983	1
0	8169	2762.628928147455	0
0	8176	2763.290163457101	1
0	8178	2764.398086481426	2
0	8180	2765.198252723981	3
0	8182	2767.253249361141	4
0	8183	2767.516618616076	3
0	8189	2767.553934599848	4
0	8193	2769.653796867116	5
0	8198	2770.458924718289	4
0	8204	2771.344348295584	5
0	8207	2772.02149850302	4
0	8213	2773.245522138246	5
0	8215	2773.26338515805	4
0	8221	2774.904836771156	3
0	8226	2777.59500399452	2
0	8234	2780.422212576922	3
0	8236	2780.449666835537	4
0	8241	2784.915717862251	5
0	8243	2786.398037323994	6
0	8244	2786.568411149556	5
0	8250	2788.503093748737	4
0	8255	2789.467639628542	3
0	8262	2790.429262165467	2
0	8270	2791.474903933563	3
0	8272	2791.73058561479	4
0	8273	2791.742945421533	3
0	8279	2793.144995441762	4
0	8282	2794.226674770106	3
0	8287	2795.120737970484	2
0	8292	2795.292966231522	1
0	8298	2797.156773118404	2
0	8299	2797.238228880317	1
0	8305	2798.561091849849	0
0	8336	2802.730173336833	1
0	8337	2803.007388829304	0
0	8348	2804.936386338975	1
0	8349	2808.039731820737	0
0	8355	2808.112482084625	1
0	8357	2808.710646194632	2
0	8361	2811.669934267697	1
0	8369	2813.065618545921	2
0	8370	2813.650370135369	1
0	8376	2813.762228820345	2
0	8378	2813.897441406679	3
0	8380	2814.126417067518	2
0	8387	2816.097171965727	3
0	8389	2816.789542750521	4
0	8392	2817.663097091062	5
0	8397	2821.040590896213	6
0	8400	2824.899621548809	5
0	8407	2825.406406244478	6
0	8408	2825.87577457193	5
0	8414	2826.789582764548	6
0	8416	2827.159090871875	7
0	8418	2830.010758329472	8
0	8420	2831.331818963146	9
0	8421	2831.459423137391	8
0	8429	2832.292656258806	9
0	8430	2834.756213007553	8
0	8436	2837.436763974967	9
0	8439	2837.926386023377	8
0	8445	2838.351466860717	9
0	8447	2840.847113612216	10
0	8448	2841.578799000793	9
0	8458	2845.65486770463	8
0	8466	2848.861695112267	9
0	8468	2850.430100762536	10
0	8469	2852.032875377606	9
0	8475	2852.633604902344	10
0	8477	2853.81049912416	9
0	8482	2855.339699951121	8
0	8487	2855.764688712254	7
0	8492	2857.068370680728	6
0	8500	2862.866097110531	7
0	8505	2864.32812001786	6
0	8514	2866.122206521612	7
0	8516	2866.539604075943	8
0	8519	2867.997205856394	7
0	8528	2870.318023104014	6
0	8533	2870.672933496329	5
0	8539	2870.897022277551	6
0	8540	2870.954980791975	5
0	8545	2875.863564755619	4
0	8551	2877.560020836356	5
0	8553	2877.747872835991	6
0	8555	2878.564377557599	7
0	8556	2879.99739976948	6
0	8560	2883.406688100463	7
0	8570	2886.194585222807	8
0	8573	2889.209799438867	7
0	8578	2891.548936051926	6
0	8586	2891.710588498929	7
0	8588	2894.488802950555	6
0	8594	2896.142827842661	5
0	8599	2898.260524212748	4
0	8605	2899.207598605896	5
0	8611	2901.176028096408	4
0	8617	2901.889914569904	5
0	8619	2903.744864714452	6
0	8621	2904.617029688928	7
0	8624	2908.533120048068	6
0	8636	2911.94245875351	5
0	8643	2912.933546595602	4
0	8648	2916.878150715471	3
0	8656	2926.579528353765	2
0	8662	2928.211074392019	1
0	8669	2930.3229451112	2
0	8671	2934.168127626801	3
0	8672	2935.737814435298	2
0	8677	2937.394572143674	1
0	8683	2937.910132915679	2
0	8686	2939.82260367616	1
0	8695	2943.769199249527	0
0	8711	2944.927588325703	1
0	8713	2946.960737530765	0
0	8751	2958.213507078961	1
0	8754	2959.60643846505	0
0	8763	2961.559348733033	1
0	8766	2963.080864019504	0
0	8773	2963.641356305113	1
0	8775	2965.278148850364	2
0	8777	2965.43860754111	3
0	8778	2967.117998794797	2
0	8783	2967.3385949131	1
0	8792	2969.270236301012	0
0	8798	2969.441307650569	1
0	8802	2970.9493497517	2
0	8804	2971.988367622071	1
0	8810	2972.987575063177	2
0	8814	2974.534775366668	1
0	8820	2975.113342772811	2
0	8827	2986.978359573182	3
0	8829	2987.055845346809	4
0	8833	2988.858352252425	5
0	8834	2990.840295011198	4
0	8841	2991.244023435463	3
0	8848	2991.893675022892	4
0	8850	2994.246108191687	5
0	8853	2994.904836490986	6
0	8854	2997.75044496863	5
0	8859	2999.537700666554	4
0	8865	3001.167750960325	3
0	8872	3004.506533361287	2
0	8881	3007.553191833127	3
0	8883	3009.807142798252	2
0	8889	3010.853289226463	1
0	8900	3014.123408082898	0
0	8916	3017.200630428082	1
0	8921	3018.308648146085	0
0	8942	3024.445757071214	1
0	8943	3024.586598644968	0
0	8955	3029.408435238066	1
0	8956	3031.362823835561	0
0	8962	3031.688765235088	1
0	8963	3031.866221671567	0
0	8978	3034.896138892306	1
0	8982	3036.655375610112	2
0	8986	3039.077326180097	1
0	8993	3040.806923358142	2
0	8996	3042.200573702932	1
0	9007	3048.447794538008	2
0	9008	3049.888590186518	1
0	9013	3050.220870381919	0
0	9020	3050.55968188029	1
0	9027	3052.784127060885	2
0	9028	3057.021622689624	1
0	9034	3057.941264556613	0
0	9048	3063.580192698197	1
0	9053	3065.109592503226	0
0	9059	3065.568786507665	1
0	9060	3065.793531341736	0
0	9083	3076.220412058055	1
0	9086	3079.585700979803	0
0	9110	3086.722464244415	1
0	9112	3087.691242832476	2
0	9116	3091.21343007549	3
0	9119	3091.546100477129	2
0	9125	3092.054518520416	3
0	9126	3092.804182441986	2
0	9135	3094.922573869382	1
0	9141	3095.173901907708	2
0	9142	3095.736692568344	1
0	9150	3097.550184390917	0
0	9163	3101.051157119214	1
0	9164	3101.499578430758	0
0	9185	3103.96078156784	1
0	9189	3105.834242446678	2
0	9190	3107.409080131501	1
0	9195	3107.72566610762	0
0	9204	3108.520074343715	1
0	9212	3110.260836877772	2
0	9214	3111.705204261086	1
0	9220	3111.770368554724	2
0	9225	3112.865588904618	3
0	9227	3113.155927488886	4
0	9229	3114.467892703416	5
0	9232	3115.420394545988	4
0	9237	3116.218017275392	3
0	9244	3117.200360305096	2
0	9249	3117.511544227591	1
0	9255	3118.34251154343	2
0	9256	3118.716977319135	1
0	9264	3121.345468343606	0
0	9270	3121.59043268436	1
0	9272	3122.09635476581	2
0	9274	3122.29254348754	3
0	9275	3123.542625689047	2
0	9280	3124.877608594927	1
0	9286	3127.156846833957	0
0	9307	3131.553680480253	1
0	9310	3132.288173903834	0
0	9321	3135.184927313996	1
0	9322	3136.064399845181	0
0	9334	3137.393063485398	1
0	9336	3141.328062758322	0
0	9350	3146.787341655963	1
0	9353	3148.00485712075	0
0	9387	3159.795915640041	1
0	9390	3159.933061045181	0
0	9399	3161.041024326418	1
0	9406	3164.966547355777	2
0	9407	3166.792964659582	1
0	9414	3167.011367122944	0
0	9425	3169.376670906382	1
0	9432	3173.863316057474	2
0	9434	3175.729127599606	3
0	9442	3181.143496709042	4
0	9446	3190.427142006396	5
0	9447	3190.64252519825	4
0	9452	3190.86110114686	3
0	9458	3192.319270498652	2
0	9465	3194.090129137594	3
0	9468	3196.047866961236	4
0	9471	3198.008868381632	3
0	9478	3199.955412625352	2
0	9485	3201.013017191482	3
0	9488	3203.712014333294	2
0	9494	3207.377173012569	1
0	9505	3208.764110543235	2
0	9507	3209.232985710072	3
0	9509	3209.538424346168	4
0	9510	3211.495208687193	3
0	9515	3213.716657517456	2
0	9520	3214.316406630431	1
0	9530	3216.45216613981	2
0	9532	3217.212706032638	3
0	9533	3217.767856457951	2
0	9540	3218.41575162932	1
0	9548	3221.454222129686	0
0	9562	3223.617905186247	1
0	9563	3225.322315722272	0
0	9570	3226.981341511237	1
0	9571	3230.776913514298	0
0	9579	3232.112384114321	1
0	9580	3232.126797308609	0
0	9586	3232.166046575347	1
0	9588	3232.374815285547	2
0	9590	3232.620737304093	3
0	9594	3233.421550948737	4
0	9596	3234.710082927718	5
0	9597	3235.343937496476	4
0	9603	3236.942628039724	3
0	9609	3240.18766742188	2
0	9617	3243.212922049625	1
0	9623	3245.97251014606	0
0	9631	3246.968246071095	1
0	9633	3249.406453580976	0
0	9658	3254.545178211163	1
0	9659	3254.566066795213	0
0	9665	3254.606265683095	1
0	9666	3255.043879155107	0
0	9672	3255.236303240453	1
0	9673	3255.43066042113	0
0	9684	3256.377466357277	1
0	9689	3259.318836810347	2
0	9691	3261.410588681142	3
0	9693	3263.670973247256	4
0	9696	3268.98334839122	3
0	9702	3271.515601661029	2
0	9709	3272.748047218701	1
0	9716	3273.223593816549	2
0	9721	3276.203552421445	1
0	9726	3276.274464877049	0
0	9742	3278.082893010857	1
0	9744	3281.416999842997	2
0	9747	3282.608201607967	1
0	9753	3283.018231950421	2
0	9759	3285.362505619683	3
0	9764	3287.041735474136	4
0	9767	3289.217968602087	3
0	9775	3293.201826959401	2
0	9781	3294.78067907732	1
0	9792	3296.976667938017	2
0	9795	3302.36626446803	1
0	9800	3302.876072326705	0
0	9813	3309.546618484893	1
0	9815	3312.598209995508	0
0	9822	3314.246690342382	1
0	9825	3316.298479418274	0
0	9832	3317.551159758102	1
0	9833	3318.338849133175	0
0	9839	3319.018317800366	1
0	9842	3321.756984820227	2
0	9843	3323.374821624457	1
0	9849	3323.475157652615	2
0	9850	3323.568533165487	1
0	9855	3323.684804636665	0
0	9893	3333.010890317171	1
0	9895	3333.065718990655	2
0	9899	3334.953752381969	3
0	9901	3335.824877062041	4
0	9904	3337.597166216683	3
0	9911	3338.883770915788	4
0	9913	3339.009961216655	5
0	9915	3340.09568386377	6
0	9916	3340.742577947974	5
0	9925	3342.143878994532	6
0	9927	3343.188517791463	5
0	9934	3346.44879645674	4
0	9941	3349.018168359458	3
0	9948	3350.597110356782	2
0	9957	3352.597677742683	1
0	9964	3355.577497083931	0
0	9976	3361.215389133542	1
0	9978	3366.497114764758	2
0	9980	3367.231883879987	3
0	9981	3367.472417640228	2
0	9986	3368.761661446785	1
0	9996	3374.278379779224	0
0	10028	3385.812489035772	1
0	10034	3388.223580928388	2
0	10036	3389.33468937306	3
0	10037	3389.553715100211	2
0	10044	3392.180646004059	1
0	10050	3393.338513963298	0
0	10059	3393.852979910622	1
0	10063	3395.696197717209	2
0	10065	3396.118339945584	1
0	10070	3397.421883575417	0
0	10082	3401.715501874535	1
0	10084	3401.850361156218	2
0	10087	3410.618375915818	1
0	10093	3411.324571624755	0
0	10109	3417.350186710073	1
0	10113	3419.502848285538	2
0	10117	3423.03781810687	3
0	10122	3425.420079293291	4
0	10123	3425.770923148509	3
0	10128	3425.842885011409	2
0	10134	3426.196862936394	1
0	10140	3426.644380721292	0
0	10153	3427.641038125277	1
0	10156	3429.957903446521	2
0	10158	3431.625828635054	3
0	10160	3432.306458180995	4
0	10161	3433.517870811418	3
0	10167	3435.389573879379	2
0	10173	3435.501362691943	3
0	10174	3435.58208704323	2
0	10179	3435.621468459639	1
0	10184	3436.899530250716	0
0	10193	3438.750559098824	1
0	10197	3441.302848787248	0
0	10209	3442.139364450983	1
0	10211	3442.176883547019	2
0	10215	3443.712582990357	1
0	10220	3445.744999207388	0
0	10236	3451.080464020956	1
0	10238	3458.235086824931	2
0	10241	3462.105661403446	1
0	10251	3467.584187947539	2
0	10252	3467.625232910429	1
0	10257	3468.455481161172	0
0	10263	3469.225402296371	1
0	10265	3470.784491513993	0
0	10271	3470.957684360567	1
0	10273	3471.82978417364	2
0	10275	3472.437970108316	1
0	10281	3472.946218313954	2
0	10286	3473.921079467314	1
0	10292	3474.778461510773	2
0	10293	3475.741466517344	1
0	10300	3476.150346353757	0
0	10314	3483.066106448309	1
0	10317	3484.485785120769	0
0	10327	3490.002053000105	1
0	10329	3490.17869220776	2
0	10330	3493.170832773989	1
0	10335	3493.437285315503	0
0	10342	3494.945051399106	1
0	10343	3496.010668295645	0
0	10356	3496.828954934865	1
0	10357	3496.880197677295	0
0	10384	3509.709416450656	1
0	10385	3512.421582719186	0
0	10394	3513.700923003055	1
0	10398	3515.681865416447	2
0	10400	3521.425788898129	1
0	10405	3523.063087881511	0
0	10416	3532.047247903702	1
0	10417	3532.161253788862	0
0	10423	3532.263403151969	1
0	10428	3535.194493916658	0
0	10436	3541.65664349897	1
0	10438	3541.721839437493	2
0	10441	3544.303745293984	1
0	10448	3547.311662500056	0
0	10456	3548.396286743225	1
0	10459	3549.997431242909	2
0	10460	3552.988591180577	1
0	10467	3556.33653966606	2
0	10469	3557.706746421963	3
0	10471	3558.690588365676	4
0	10472	3558.767592665085	3
0	10479	3559.200904060964	4
0	10483	3559.767537100063	5
0	10485	3560.328034393219	6
0	10486	3561.655768481379	5
0	10492	3563.018676571776	4
0	10498	3563.323375623575	5
0	10500	3563.485536806543	4
0	10508	3568.044253560025	3
0	10515	3569.88681542702	4
0	10517	3570.883997700132	5
0	10518	3570.969121989857	4
0	10523	3571.034355855773	3
0	10529	3571.370201381358	4
0	10531	3571.431586185228	3
0	10538	3572.130654288812	2
0	10544	3572.595749868263	3
0	10546	3574.071493861743	4
0	10547	3574.212964672827	3
0	10554	3574.884200902086	4
0	10555	3575.393282653017	3
0	10560	3575.408750381	2
0	10564	3575.666192834872	3
0	10568	3579.405764093216	4
0	10571	3581.954851897777	5
0	10573	3582.736701381541	6
0	10574	3582.972831022144	5
0	10581	3583.905061611762	4
0	10586	3585.375097067514	3
0	10595	3587.569502610517	2
0	10601	3589.210513702295	3
0	10603	3590.661693876318	4
0	10605	3592.184783401723	5
0	10610	3593.57230417703	4
0	10615	3594.187877171937	3
0	10620	3597.703378315838	2
0	10624	3597.890911930229	3
0	10626	3598.306694153904	4
0	10632	3600.600037874934	5
0	10636	3603.12110042271	4
0	10641	3603.256284125049	3
0	10650	3607.965349252981	2
0	10655	3608.587623004771	1
0	10664	3610.675868240918	2
0	10665	3613.39102014408	1
0	10675	3620.657108854819	0
0	10681	3622.339830668549	1
0	10682	3622.350000980305	0
0	10688	3623.040941521591	1
0	10689	3623.916644019527	0
0	10715	3626.066025311922	1
0	10720	3631.504030817709	0
0	10741	3634.496770547058	1
0	10743	3635.487713308689	2
0	10745	3637.380054318084	1
0	10752	3638.704600202813	2
0	10754	3638.839175000434	3
0	10755	3639.146200447567	2
0	10760	3639.223833613427	1
0	10767	3642.814952154502	0
0	10780	3645.358108723823	1
0	10783	3646.522907386083	0
0	10799	3650.788742463588	1
0	10800	3653.377118640501	0
0	10808	3654.810263644471	1
0	10809	3656.242466999183	0
0	10823	3658.071256213293	1
0	10826	3659.564070913938	2
0	10828	3660.352859788366	3
0	10830	3660.902016061382	4
0	10831	3661.114575905732	3
0	10836	3662.252124556554	2
0	10842	3664.081314542394	3
0	10843	3664.647225039102	2
0	10848	3666.013227719041	1
0	10856	3668.496516514206	0
0	10874	3671.924403403324	1
0	10876	3675.507213128808	0
0	10885	3681.380848074011	1
0	10886	3682.838383726024	0
0	10902	3686.798368883564	1
0	10903	3689.560261352284	0
0	10926	3698.966700132896	1
0	10927	3704.475817686089	0
0	10937	3705.790373898425	1
0	10940	3707.231383287629	0
0	10947	3708.221992956412	1
0	10948	3708.740662292717	0
0	10954	3709.253218129103	1
0	10957	3710.025668195899	2
0	10959	3710.212956223128	3
0	10962	3711.383725302293	4
0	10965	3714.644393667418	3
0	10970	3715.647762818401	2
0	10976	3718.029856811686	1
0	10982	3718.234303787838	2
0	10987	3725.005975638648	1
0	10993	3725.354845141653	2
0	10996	3726.280730608058	3
0	10997	3728.63779669167	2
0	11002	3728.739946803345	1
0	11008	3730.880726823067	0
0	11046	3743.078746799641	1
0	11049	3743.447305802748	0
0	11057	3745.901372347064	1
0	11059	3746.789968775017	2
0	11060	3747.139424971176	1
0	11066	3747.177171151467	2
0	11069	3749.10099874226	1
0	11077	3750.985635056301	0
0	11084	3753.146679714749	1
0	11087	3758.940452013114	0
0	11094	3760.683565561504	1
0	11095	3760.987745796285	0
0	11111	3764.237715550091	1
0	11115	3767.771145697967	2
0	11119	3770.932477079045	3
0	11120	3770.959812430381	2
0	11125	3771.25184292492	1
0	11133	3771.394981859653	2
0	11137	3774.593682877539	3
0	11141	3782.080369710677	4
0	11142	3783.695811540383	3
0	11147	3784.13838522434	2
0	11155	3786.451453131562	1
0	11164	3790.087506404754	0
0	11194	3803.772270584101	1
0	11197	3809.114099290034	0
0	11206	3810.09559043693	1
0	11207	3812.284085157081	0
0	11225	3817.372091156148	1
0	11226	3817.47448622576	0
0	11238	3826.027213205751	1
0	11241	3826.283929482597	0
0	11248	3828.25718369548	1
0	11249	3828.394810269969	0
0	11267	3842.583072648815	1
0	11274	3849.424297777703	0
0	11280	3851.349220293672	1
0	11281	3851.68430200711	0
0	11296	3853.65435412651	1
0	11299	3854.48943147378	0
0	11310	3857.993459342174	1
0	11311	3858.451090323674	0
0	11318	3861.194264087491	1
0	11322	3861.281809785352	2
0	11323	3862.590214939261	1
0	11328	3862.660604955919	0
0	11334	3862.70818477182	1
0	11336	3863.534066365999	2
0	11340	3866.807495992895	1
0	11347	3868.769142742761	2
0	11354	3873.056317486691	1
0	11359	3873.38608701112	0
0	11372	3875.794483519625	1
0	11373	3876.189291579585	0
0	11379	3876.41991936418	1
0	11384	3879.355568731989	0
0	11409	3883.833725677285	1
0	11410	3883.947566827399	0
0	11419	3884.457937636858	1
0	11423	3885.556762338497	2
0	11425	3886.150179197502	1
0	11432	3886.877046969435	0
0	11451	3897.124322211075	1
0	11452	3897.255689537929	0
0	11460	3898.853105171394	1
0	11461	3899.623247056388	0
0	11482	3905.722250421738	1
0	11484	3911.856634795125	2
0	11487	3912.518711792174	1
0	11495	3917.675518423239	0
0	11520	3932.207614745892	1
0	11522	3932.765383004702	2
0	11524	3933.454018858641	3
0	11525	3935.021575567432	2
0	11530	3935.092197107337	1
0	11536	3935.76055564752	2
0	11538	3936.694677891164	1
0	11544	3936.797540391878	2
0	11547	3937.756709078975	1
0	11557	3942.128909729099	0
0	11570	3944.495170882853	1
0	11572	3945.538557984534	2
0	11573	3945.789014025827	1
0	11581	3953.891019692188	0
0	11587	3956.232818864935	1
0	11589	3958.051181896509	2
0	11595	3963.495114164934	3
0	11600	3967.551527452276	2
0	11605	3967.734472172763	1
0	11610	3968.08139372604	0
0	11618	3969.85964735265	1
0	11620	3970.759306159312	0
0	11638	3973.949898845394	1
0	11639	3975.508678301061	0
0	11645	3976.30996185822	1
0	11649	3979.625266935514	2
0	11652	3983.160397346097	3
0	11654	3984.201569986182	4
0	11656	3985.410147823028	5
0	11657	3985.997369518238	4
0	11662	3986.713119972568	3
0	11667	3987.852443534268	2
0	11672	3989.254960771715	1
0	11676	3991.549454180995	2
0	11680	3992.643764676182	3
0	11682	3994.740903286457	4
0	11685	3995.528649531895	3
0	11690	3996.714199075828	2
0	11697	3998.221216132376	1
0	11703	3999.428715187425	2
0	11704	4000.193827493176	1
0	11709	4000.447552349997	0
0	11713	4001.004436128657	1
0	11717	4002.457827255385	2
0	11718	4002.850799047399	1
0	11722	4003.69343075567	2
0	11724	4004.722946725983	3
0	11727	4005.246049315255	2
0	11733	4008.210725070307	3
0	11737	4010.605111954063	4
0	11738	4012.835144011944	3
0	11746	4014.520601033874	4
0	11749	4015.518917107584	3
0	11753	4016.207761459849	4
0	11755	4016.652154087665	5
0	11757	4018.609590121364	6
0	11767	4023.418297467304	7
0	11769	4025.011713075016	8
0	11772	4027.883757797761	7
0	11780	4029.191564980252	8
0	11781	4030.295378402824	7
0	11787	4031.049975715024	8
0	11789	4038.424659866946	7
0	11795	4040.578914579323	8
0	11798	4043.02932642316	9
0	11799	4045.475517816098	8
0	11805	4047.241603739543	7
0	11810	4048.353559910329	6
0	11816	4048.699267427767	7
0	11819	4050.14518226238	6
0	11825	4050.583024504327	5
0	11830	4050.708707216108	4
0	11835	4051.24820190999	3
0	11840	4052.097130005611	2
0	11844	4052.9511953912	3
0	11847	4055.389264452919	2
0	11854	4059.107951577067	1
0	11859	4059.574929610547	0
0	11878	4061.671842789618	1
0	11880	4063.019025455415	0
0	11904	4067.566764447651	1
0	11906	4067.757462618035	2
0	11910	4074.7109110618	3
0	11912	4077.861785460607	4
0	11915	4078.514468242152	3
0	11921	4078.932232571069	4
0	11926	4080.738790411919	3
0	11932	4082.023338828184	2
0	11940	4083.449966025929	1
0	11946	4084.328692551731	2
0	11947	4084.632563523014	1
0	11956	4086.555770010717	0
0	11981	4091.675560001286	1
0	11984	4092.530636093628	0
0	11997	4094.075107719967	1
0	11999	4096.577737895942	0
0	12010	4098.148904596916	1
0	12021	4104.010521438232	0
0	12037	4104.299932560988	1
0	12039	4104.319252169652	2
0	12043	4105.841114123096	1
0	12048	4106.266615478593	0
0	12054	4107.847828700953	1
0	12056	4108.027466903752	0
0	12067	4109.577781815501	1
0	12069	4110.636215949442	0
0	12080	4113.089323276521	1
0	12085	4114.158507922702	0
0	12091	4114.506695556833	1
0	12092	4114.821213592073	0
0	12102	4118.531007164849	1
0	12104	4118.852187754265	2
0	12107	4121.400909485293	1
0	12116	4125.437846182982	0
0	12137	4131.769734203929	1
0	12144	4135.858998036875	0
0	12178	4155.406672381336	1
0	12181	4158.939066640086	0
0	12187	4159.189381801535	1
0	12188	4159.96389181017	0
0	12207	4167.743834467577	1
0	12210	4169.279497658523	0
0	12232	4172.312391430251	1
0	12235	4174.493503361294	0
0	12244	4178.890012319292	1
0	12245	4182.512711381462	0
0	12259	4186.007451445918	1
0	12260	4186.629867625015	0
0	12266	4186.720939252228	1
0	12267	4187.505373996602	0
0	12274	4187.756310341359	1
0	12277	4189.039548283943	2
0	12280	4191.098404114728	3
0	12283	4193.734558661298	2
0	12288	4194.019428995677	1
0	12293	4194.445375055267	0
0	12300	4196.508092632199	1
0	12301	4198.290078823626	0
0	12305	4199.20526717021	1
0	12309	4199.30241254666	2
0	12311	4200.540550458482	3
0	12312	4201.540808866265	2
0	12318	4205.154443160533	3
0	12319	4205.502348607002	2
0	12325	4207.183141544552	3
0	12326	4207.537811209508	2
0	12331	4208.167716752738	1
0	12336	4208.301202546624	0
0	12344	4210.144735135707	1
0	12345	4212.846425640431	0
0	12381	4219.915586313474	1
0	12382	4221.244320240167	0
0	12412	4228.143811682567	1
0	12414	4228.398869689646	0
0	12440	4237.062360435302	1
0	12442	4238.053640371423	2
0	12443	4238.536299918761	1
0	12454	4239.76713260254	2
0	12455	4240.112541040584	1
0	12463	4240.874440119961	2
0	12466	4241.567136954164	3
0	12468	4241.576027784736	4
0	12470	4242.324802499459	3
0	12476	4242.881287787374	4
0	12481	4245.766838708546	3
0	12488	4247.179360371307	2
0	12495	4249.917673758741	1
0	12502	4253.275837206969	2
0	12503	4254.27225675046	1
0	12508	4254.478294701395	0
0	12522	4256.407969765939	1
0	12524	4256.834166985468	0
0	12543	4260.818763733185	1
0	12546	4262.55106020278	2
0	12549	4268.705932642291	1
0	12554	4268.714569454331	0
0	12578	4270.557152329333	1
0	12582	4273.052287260455	2
0	12584	4278.380045432522	3
0	12590	4281.693140324467	4
0	12594	4285.100945186085	5
0	12598	4289.814128698335	6
0	12602	4293.142862594717	7
0	12603	4293.244393734924	6
0	12608	4293.579605443459	5
0	12614	4294.235616731075	4
0	12619	4294.408088063627	3
0	12626	4295.023479641006	2
0	12634	4297.894730647163	3
0	12635	4298.080484823924	2
0	12643	4299.446780356069	1
0	12648	4299.50822397134	0
0	12660	4303.940998708815	1
0	12661	4304.296869944583	0
0	12672	4304.987402641913	1
0	12676	4305.799249822435	0
0	12688	4309.509378194772	1
0	12689	4309.680261377341	0
0	12710	4321.523430065123	1
0	12712	4321.608214323294	2
0	12714	4322.20256232673	3
0	12716	4323.91794013884	4
0	12717	4325.203309459446	3
0	12722	4326.170155875012	2
0	12728	4326.229996169505	1
0	12733	4326.853170145652	0
0	12758	4333.425310929862	1
0	12762	4334.449784482768	2
0	12765	4339.392319768413	1
0	12771	4341.603416335162	2
0	12772	4342.685555342749	1
0	12780	4345.810943853501	0
0	12789	4349.282294954458	1
0	12791	4349.571886455052	2
0	12792	4354.06833793024	1
0	12797	4354.319661999593	0
0	12808	4354.493533090977	1
0	12813	4357.50114145131	0
0	12829	4363.685970879478	1
0	12830	4363.756875449293	0
0	12845	4367.630269697846	1
0	12849	4369.380042735585	2
0	12850	4370.792156387311	1
0	12856	4380.558937605774	0
0	12870	4386.172085438561	1
0	12873	4389.110272841399	0
0	12879	4389.230065790871	1
0	12884	4391.169315489462	2
0	12889	4392.462762122348	3
0	12893	4394.441464915885	4
0	12894	4395.070914170116	3
0	12899	4395.591552619195	2
0	12907	4401.49200418381	1
0	12912	4401.586905052934	0
0	12932	4404.573113633309	1
0	12938	4406.776515168851	2
0	12940	4408.581131088135	3
0	12941	4411.472273313129	2
0	12948	4412.892192954643	3
0	12952	4414.823231139101	4
0	12953	4416.419108218365	3
0	12960	4418.542790257088	4
0	12961	4418.620651820371	3
0	12969	4419.886146116559	2
0	12975	4420.983157658451	3
0	12977	4422.940215382226	2
0	12983	4423.453825640001	1
0	12989	4426.908796668635	2
0	12992	4429.41987760268	1
0	12998	4430.133933758337	2
0	13001	4431.817219186415	1
0	13009	4432.299709402126	2
0	13011	4434.024054530887	1
0	13017	4434.423311726009	2
0	13023	4441.750995589357	1
0	13028	4441.848426466208	0
0	13036	4442.783501216539	1
0	13042	4445.34789459692	2
0	13044	4447.957820105553	3
0	13048	4449.671176806071	4
0	13050	4452.925964639527	5
0	13051	4453.379376918381	4
0	13059	4454.241618238669	5
0	13060	4456.640824283529	4
0	13067	4459.775488102237	5
0	13069	4461.341737104248	6
0	13072	4464.802530708602	7
0	13077	4471.011693434807	6
0	13083	4471.165605691779	7
0	13085	4472.28286188812	6
0	13095	4473.20287575971	5
0	13101	4473.989907899821	6
0	13102	4474.756617988426	5
0	13108	4477.059951752464	4
0	13114	4477.386444731492	5
0	13115	4477.62078673248	4
0	13121	4477.69267748528	3
0	13128	4478.282401950084	4
0	13132	4481.22922407961	5
0	13133	4483.695470583069	4
0	13141	4489.280274062443	3
0	13146	4489.735634503692	2
0	13152	4491.988586176768	1
0	13161	4494.6479278348	2
0	13162	4495.673987425329	1
0	13167	4496.05447805904	0
0	13177	4497.852576629536	1
0	13180	4498.253580321838	0
0	13201	4505.242785978715	1
0	13202	4506.201089440578	0
0	13216	4510.880569757796	1
0	13219	4512.052063232071	2
0	13221	4512.615023020215	3
0	13222	4513.841413427796	2
0	13228	4515.213333401795	3
0	13229	4515.339170425267	2
0	13234	4515.764872323123	1
0	13242	4518.154574941921	0
0	13248	4518.187019516434	1
0	13250	4519.320178514267	2
0	13253	4519.507397903813	1
0	13259	4522.310204672687	0
0	13303	4533.546031549262	1
0	13305	4539.260253227778	2
0	13306	4539.445492815211	1
0	13315	4539.984671782664	2
0	13316	4541.061117579099	1
0	13322	4543.478073541487	0
0	13357	4556.981987871477	1
0	13358	4558.556751917695	0
0	13370	4563.067245750674	1
0	13374	4563.900630072012	0
0	13380	4564.815178416321	1
0	13384	4566.724142288157	0
0	13391	4569.232298337231	1
0	13393	4570.411429465083	2
0	13394	4570.685487047285	1
0	13403	4574.148989468893	2
0	13405	4574.725143960162	3
0	13406	4575.43428445136	2
0	13414	4577.098321295733	1
0	13420	4578.791699853274	0
0	13441	4585.163952979332	1
0	13443	4585.77748957777	2
0	13444	4586.147867553377	1
0	13450	4587.308183669814	2
0	13451	4587.545643849735	1
0	13456	4588.246737954549	0
0	13463	4591.651457885962	1
0	13467	4593.767214717845	0
0	13491	4599.899909585355	1
0	13495	4601.207855564921	2
0	13498	4602.071895130001	1
0	13504	4602.678007028795	2
0	13505	4603.221841497956	1
0	13510	4603.835466510313	0
0	13520	4604.463649998443	1
0	13523	4605.259213858217	0
0	13543	4612.235830652406	1
0	13547	4612.653143071545	2
0	13548	4612.710588561101	1
0	13554	4613.42664289397	2
0	13557	4615.118815955807	3
0	13558	4616.570919752783	2
0	13563	4617.452636909368	1
0	13568	4617.487275191894	0
0	13578	4619.106446208556	1
0	13580	4620.189812787984	2
0	13582	4620.930302773069	3
0	13584	4621.116436035237	4
0	13589	4622.312945778174	5
0	13591	4622.378895933946	6
0	13592	4623.238947129204	5
0	13603	4627.141559714782	6
0	13607	4630.204861321537	7
0	13609	4630.864974568239	6
0	13618	4631.950158844739	7
0	13620	4635.193483871694	6
0	13631	4637.317063128617	7
0	13633	4638.406042325041	8
0	13634	4638.652361170619	7
0	13641	4639.911608871699	8
0	13644	4644.162861651039	7
0	13649	4647.625946683295	6
0	13654	4648.642392212927	5
0	13659	4649.114991603105	4
0	13665	4650.386470863172	3
0	13671	4650.660152373523	2
0	13680	4654.949906053279	1
0	13687	4657.101419275615	2
0	13689	4657.433087068839	3
0	13692	4659.426119824125	2
0	13697	4659.533758459349	1
0	13703	4659.578528367003	2
0	13704	4661.797196155652	1
0	13710	4662.296391204516	0
0	13716	4666.092363054693	1
0	13717	4666.336875940999	0
0	13742	4674.158101333133	1
0	13743	4675.42058839267	0
0	13754	4676.010516240433	1
0	13759	4680.893039459674	0
0	13767	4684.675740394637	1
0	13770	4685.399279240781	0
0	13776	4686.094486569897	1
0	13778	4686.394371336648	0
0	13792	4688.330728105016	1
0	13793	4688.405357527959	0
0	13821	4695.654124890982	1
0	13822	4697.140387134455	0
0	13831	4698.102514568387	1
0	13833	4698.630796169323	2
0	13835	4698.651236023322	3
0	13837	4698.760645766528	4
0	13839	4699.242986560207	5
0	13840	4700.64539210946	4
0	13847	4702.457798438641	5
0	13849	4702.642770257833	6
0	13851	4703.570926961689	7
0	13852	4704.391839235415	6
0	13858	4705.923837978807	5
0	13864	4706.562350304267	6
0	13865	4706.931440149666	5
0	13872	4707.396976983794	4
0	13878	4707.580584789951	3
0	13884	4707.963016118186	4
0	13885	4708.102076372239	3
0	13894	4710.416510247591	4
0	13896	4711.349489703991	5
0	13897	4711.362587932138	4
0	13901	4712.627016549025	5
0	13911	4714.938727949881	6
0	13915	4718.372430021763	7
0	13916	4718.488939495063	6
0	13922	4719.358918753628	7
0	13927	4721.217206353831	8
0	13931	4721.903373578164	7
0	13937	4723.882322486169	6
0	13943	4725.011368355499	7
0	13949	4729.33860359071	8
0	13953	4730.189375215459	9
0	13956	4735.290489010728	8
0	13961	4736.042519301747	7
0	13967	4738.277700794828	6
0	13972	4738.296317360121	5
0	13979	4739.920013153331	4
0	13988	4745.520798966045	3
0	13996	4748.671668016632	2
0	14002	4749.165332786613	1
0	14010	4755.591218734009	2
0	14011	4757.591245307563	1
0	14018	4759.631304998844	2
0	14019	4761.201403884425	1
0	14032	4766.012904193046	2
0	14033	4766.397176748655	1
0	14039	4767.009402669263	2
0	14042	4768.35426353264	1
0	14049	4772.729763829612	0
0	14056	4773.534382073256	1
0	14057	4773.867885463086	0
0	14069	4775.584443146812	1
0	14074	4778.864782360695	0
0	14086	4785.076728748251	1
0	14089	4786.107625864322	0
0	14106	4797.462746783595	1
0	14107	4800.141761316428	0
0	14123	4804.846871120188	1
0	14125	4805.433061275219	2
0	14126	4805.814714944897	1
0	14132	4806.822923538312	0
0	14151	4820.506274158553	1
0	14152	4820.787275449693	0
0	14167	4824.631883373751	1
0	14169	4825.716141384902	2
0	14172	4827.479374283638	1
0	14182	4830.272896866289	0
0	14189	4831.017179664597	1
0	14190	4833.941759123789	0
0	14202	4837.490840682707	1
0	14203	4838.165140818708	0
0	14210	4839.538135030316	1
0	14212	4840.116720468065	2
0	14213	4840.812365908071	1
0	14221	4842.538889948038	0
0	14253	4857.271910218533	1
0	14255	4862.657761100184	2
0	14257	4863.247513359803	3
0	14258	4863.674871714518	2
0	14264	4864.208095835294	1
0	14269	4864.288226674591	0
0	14285	4867.631953901013	1
0	14289	4868.900977701863	2
0	14291	4869.432287066401	3
0	14292	4870.081604591087	2
0	14297	4870.310041949838	1
0	14302	4870.519000693839	0
0	14331	4877.478783035714	1
0	14333	4877.696045226172	2
0	14338	4879.517949312478	3
0	14341	4880.776297272315	4
0	14342	4881.110868331655	3
0	14348	4881.804383813568	4
0	14350	4882.6901838011	3
0	14355	4882.768283026009	2
0	14360	4883.064620747549	1
0	14368	4886.854052314554	0
0	14374	4889.030944443892	1
0	14376	4889.257835089336	2
0	14378	4889.410505148468	3
0	14379	4889.782112913093	2
0	14386	4890.86980541641	3
0	14390	4892.635331507267	2
0	14396	4893.928689985896	1
0	14405	4895.784432237396	2
0	14406	4896.868677400783	1
0	14412	4899.862187496547	2
0	14413	4901.438665039434	1
0	14418	4901.572661441095	0
0	14450	4911.30058175961	1
0	14455	4913.926879101247	2
0	14457	4915.656156854364	1
0	14465	4917.719137376286	0
0	14491	4930.156114909518	1
0	14492	4931.057598779924	0
0	14499	4932.658063041473	1
0	14500	4935.479006150916	0
0	14514	4942.09791585679	1
0	14516	4943.081452379597	2
0	14520	4943.199154849945	3
0	14522	4945.781341461804	4
0	14523	4946.592399760824	3
0	14529	4946.755353228187	4
0	14532	4948.81880014584	3
0	14539	4949.235186932768	4
0	14543	4949.58429051467	5
0	14544	4951.916462015834	4
0	14549	4952.552697215762	3
0	14554	4952.67870620591	2
0	14559	4953.042485776028	1
0	14563	4953.751071261107	2
0	14570	4957.29422108957	1
0	14577	4959.519547836377	2
0	14579	4960.110873381208	3
0	14581	4961.238999454201	4
0	14583	4961.354407588656	5
0	14585	4964.218891311142	6
0	14589	4965.488160552387	7
0	14591	4972.05699774204	8
0	14593	4972.590010972065	9
0	14597	4976.558338950315	10
0	14598	4979.355908809883	9
0	14604	4979.638620245914	10
0	14606	4980.51331370313	9
0	14613	4981.252724724123	10
0	14615	4982.605463370634	9
0	14620	4984.493663699185	8
0	14627	4985.413906841035	9
0	14629	4986.255160375526	10
0	14631	4987.285209688214	11
0	14632	4987.389860927334	10
0	14638	4991.13139339294	9
0	14644	4991.827741219905	8
0	14649	4991.953539502793	7
0	14654	4992.435098619568	6
0	14658	4992.586834013665	7
0	14661	4993.468263980446	6
0	14668	4995.352598784136	7
0	14669	4996.462857077791	6
0	14677	4996.938661131823	5
0	14686	5000.973013087153	6
0	14687	5001.626129512018	5
0	14693	5002.544553545798	4
0	14699	5004.893297408428	3
0	14708	5005.82947483728	2
0	14714	5007.560601626008	1
0	14719	5009.057434132643	0
0	14744	5015.399700482642	1
0	14747	5017.36652860499	0
0	14757	5020.613278440285	1
0	14758	5021.789193933613	0
0	14778	5031.592882776889	1
0	14782	5033.095809989221	2
0	14784	5033.398344584337	3
0	14786	5035.000407816183	4
0	14787	5035.479282010698	3
0	14793	5035.821744885205	4
0	14794	5036.007936875982	3
0	14800	5036.110431020681	4
0	14802	5037.168672301542	3
0	14807	5037.559315496964	2
0	14812	5038.596180238379	1
0	14820	5042.338035770858	0
0	14854	5049.007484581355	1
0	14856	5050.810408305026	2
0	14857	5053.98567609227	1
0	14862	5058.85941221933	0
0	14868	5059.575089053939	1
0	14870	5060.955571188422	0
0	14886	5069.394523187958	1
0	14887	5069.586706662888	0
0	14900	5072.873525949689	1
0	14901	5072.920005284046	0
0	14915	5075.047751766406	1
0	14917	5075.134031120138	2
0	14921	5077.12534913602	3
0	14923	5080.608822260709	2
0	14930	5081.596466985965	1
0	14935	5083.536895293277	0
0	14954	5092.070293395851	1
0	14962	5095.493518759306	0
0	14992	5102.582147024515	1
0	14997	5105.221920738288	2
0	15000	5107.435906692061	1
0	15009	5112.365074104386	2
0	15010	5115.717708880943	1
0	15016	5116.549337336272	0
0	15035	5119.603726934901	1
0	15036	5121.00823420215	0
0	15043	5122.426721718792	1
0	15045	5122.957570115907	2
0	15046	5124.023129328252	1
0	15053	5124.181681130455	2
0	15055	5125.863436642655	1
0	15060	5126.933513872287	0
0	15074	5128.892979850662	1
0	15079	5130.176290791608	2
0	15081	5133.246808104511	1
0	15087	5133.522164882068	2
0	15089	5134.644992536174	3
0	15091	5135.351181651955	2
0	15098	5136.640709274706	3
0	15099	5136.735235407318	2
0	15105	5137.701550577638	1
0	15112	5138.418089789896	2
0	15113	5139.724476509402	1
0	15119	5142.006263295994	0
0	15143	5150.183401066747	1
0	15144	5150.617241091699	0
0	15150	5151.051524574779	1
0	15151	5151.230798817234	0
0	15179	5160.393946612953	1
0	15181	5160.401483426811	2
0	15182	5160.88302641673	1
0	15189	5165.773593202712	2
0	15191	5167.954948730549	1
0	15197	5168.888611807482	0
0	15204	5176.300989764736	1
0	15205	5177.765512579404	0
0	15211	5178.905737251964	1
0	15212	5179.120350995282	0
0	15226	5183.771787052326	1
0	15233	5187.487446266005	0
0	15240	5190.781325409374	1
0	15243	5197.716808547553	0
0	15254	5200.433190952013	1
0	15259	5202.784905080787	0
0	15271	5208.152787727182	1
0	15272	5208.292147945606	0
0	15284	5210.118553402016	1
0	15285	5210.313864049782	0
0	15299	5213.839181217839	1
0	15301	5214.733487783191	2
0	15304	5215.946646826942	1
0	15311	5217.329640988244	2
0	15314	5219.75836920403	1
0	15323	5222.381883289517	2
0	15327	5225.298394260959	3
0	15328	5226.21685261245	2
0	15336	5230.618359560264	1
0	15343	5231.278722409152	0
0	15350	5231.477856909524	1
0	15353	5235.778498703073	0
0	15367	5238.619584024376	1
0	15369	5238.774462551158	2
0	15372	5241.06430273298	1
0	15379	5245.569490342792	2
0	15384	5248.378848945895	1
0	15389	5248.602698848433	0
0	15395	5248.683342285742	1
0	15396	5249.384259531939	0
0	15407	5252.741312292654	1
0	15408	5253.247343644918	0
0	15423	5257.329292198657	1
0	15425	5259.512436461956	2
0	15427	5261.496296047499	3
0	15428	5261.91617368354	2
0	15433	5264.992436776444	1
0	15439	5265.054024333712	2
0	15441	5265.998441376229	1
0	15446	5267.247453494087	0
0	15470	5270.335164971849	1
0	15472	5271.066871510058	0
0	15478	5271.079544236464	1
0	15480	5273.104258552356	0
0	15490	5274.881400183356	1
0	15491	5275.089374191039	0
0	15498	5279.329204930668	1
0	15499	5279.875212759891	0
0	15524	5284.707297468155	1
0	15525	5287.265301187101	0
0	15548	5296.928339047804	1
0	15549	5299.999696715467	0
0	15558	5302.32629098176	1
0	15563	5304.401118168224	0
0	15576	5310.243510631729	1
0	15580	5312.394133833997	2
0	15581	5312.602699934411	1
0	15587	5317.444042612982	0
0	15601	5319.483388540125	1
0	15602	5322.239598000079	0
0	15635	5334.715489891428	1
0	15636	5335.383636867793	0
0	15662	5347.20779095288	1
0	15663	5349.444723797637	0
0	15682	5353.970547078762	1
0	15684	5354.233983049648	2
0	15691	5359.175020174697	1
0	15701	5360.097194821508	0
0	15733	5373.198700563736	1
0	15736	5374.060832071056	0
0	15742	5374.145510887828	1
0	15743	5375.394625165054	0
0	15750	5376.269269045651	1
0	15752	5376.448122385082	2
0	15754	5380.450405355999	1
0	15759	5380.981902713688	0
0	15770	5381.484458563211	1
0	15772	5381.987705336587	0
0	15784	5385.332033538161	1
0	15785	5385.489123306572	0
0	15803	5394.524514300927	1
0	15805	5397.15106150793	2
0	15807	5397.557936525791	3
0	15809	5397.992248081477	4
0	15810	5398.676410582825	3
0	15819	5402.982172625866	4
0	15821	5404.962090550647	5
0	15823	5405.495736838045	6
0	15824	5405.93778598269	5
0	15830	5406.1598519832	6
0	15833	5409.24904592958	5
0	15838	5409.649932688295	4
0	15844	5409.820708656582	3
0	15849	5410.830750033192	2
0	15855	5411.084241554133	3
0	15857	5412.128759468651	4
0	15861	5413.45683369473	5
0	15862	5413.592287941516	4
0	15866	5414.761910830955	5
0	15877	5420.925598636604	4
0	15884	5423.190909643394	3
0	15888	5424.466882788093	4
0	15891	5425.359664768866	3
0	15897	5426.374634395845	4
0	15898	5428.636311445245	3
0	15902	5429.250188232855	4
0	15906	5430.124087827847	5
0	15908	5430.453782212012	4
0	15913	5432.349603432852	3
0	15918	5436.999587384599	2
0	15922	5438.363374441265	3
0	15925	5438.936839106699	2
0	15933	5441.158086946865	3
0	15935	5441.735269883463	2
0	15942	5448.250031348312	1
0	15947	5448.383497803941	0
0	15955	5449.172502751072	1
0	15960	5450.431815450801	0
0	15994	5463.778174623374	1
0	15997	5467.976983084805	0
0	16010	5470.292980111242	1
0	16012	5474.472981192998	2
0	16013	5474.976708875892	1
0	16018	5475.092174624417	0
0	16029	5478.701704852706	1
0	16032	5479.629775387728	0
0	16039	5480.769223437696	1
0	16040	5481.941643684061	0
0	16063	5484.663095447819	1
0	16066	5490.094756601809	0
0	16073	5490.37988967272	1
0	16077	5491.014067730257	0
0	16088	5492.911103914687	1
0	16091	5493.593244166731	2
0	16093	5494.401139321846	3
0	16095	5495.915837738938	4
0	16097	5496.311851917957	5
0	16101	5500.165343720606	6
0	16103	5500.256405496819	7
0	16105	5501.355425838568	8
0	16107	5502.412835800274	9
0	16109	5505.838796797064	10
0	16110	5506.354117226431	9
0	16116	5509.817797316073	8
0	16122	5510.1581031787	9
0	16128	5516.62403277202	8
0	16133	5516.712638112343	7
0	16143	5520.826449036656	8
0	16149	5523.123322954734	9
0	16152	5523.836735442656	8
0	16158	5524.675003338472	9
0	16160	5527.675289829053	8
0	16173	5530.739739189675	7
0	16179	5534.263739610534	6
0	16186	5535.67080146217	7
0	16187	5536.351668261253	6
0	16192	5537.435620866964	5
0	16197	5537.950587818755	4
0	16203	5539.325110586488	3
0	16208	5539.943267725435	2
0	16212	5539.967173674303	3
0	16214	5540.744497289132	4
0	16218	5544.82542366126	3
0	16223	5545.947475761604	2
0	16227	5547.565948514816	3
0	16239	5553.784720730709	2
0	16245	5554.708310046733	1
0	16251	5556.47991781135	0
0	16258	5562.337768759034	1
0	16261	5566.304042517765	0
0	16267	5566.665931754363	1
0	16272	5570.465517629072	0
0	16280	5572.94808241598	1
0	16281	5573.140999261119	0
0	16304	5577.80039245373	1
0	16309	5578.53427254927	2
0	16310	5578.988382037275	1
0	16316	5579.317427874448	2
0	16318	5579.553827858656	3
0	16319	5581.471227838027	2
0	16323	5582.101542094323	3
0	16329	5587.611922159846	4
0	16333	5588.447424131465	5
0	16334	5589.480748946376	4
0	16345	5594.538929012014	3
0	16351	5595.579064584	4
0	16356	5598.586866408629	5
0	16357	5599.492970992142	4
0	16362	5599.789628137672	3
0	16368	5600.681018430145	2
0	16373	5600.824138286989	1
0	16383	5604.711746088578	0
0	16399	5610.409501889194	1
0	16400	5610.526557280874	0
0	16406	5610.702687328338	1
0	16408	5612.856650806185	0
0	16417	5613.139492346917	1
0	16422	5618.827955210672	0
0	16428	5618.869025494312	1
0	16432	5619.921767262597	0
0	16450	5623.905899365926	1
0	16454	5627.831546219349	0
0	16472	5632.220833370297	1
0	16473	5633.024269543336	0
0	16479	5633.036561783236	1
0	16481	5634.59439544644	0
0	16487	5634.619799679048	1
0	16488	5634.66451573074	0
0	16495	5635.527948558	1
0	16496	5636.011946046774	0
0	16508	5639.32618735252	1
0	16513	5641.136678320027	2
0	16515	5643.201417623047	3
0	16520	5647.174806313768	2
0	16525	5648.837440254363	1
0	16532	5651.462871986828	0
0	16552	5659.152134824174	1
0	16553	5660.560327090197	0
0	16571	5673.048307441118	1
0	16572	5673.591966620111	0
0	16578	5673.899595163601	1
0	16579	5674.337681016186	0
0	16585	5674.969488275119	1
0	16587	5677.492549107333	0
0	16593	5677.550509746838	1
0	16596	5680.412171470348	0
0	16603	5683.367843250037	1
0	16605	5683.832735227789	2
0	16606	5687.065341879454	1
0	16612	5687.779641995942	2
0	16613	5688.428064911687	1
0	16621	5690.269255963128	2
0	16622	5690.478992538399	1
0	16630	5691.78317244008	2
0	16631	5692.430178136096	1
0	16637	5692.646402749078	0
0	16647	5697.979507517936	1
0	16649	5698.87615385863	2
0	16651	5701.232037156015	3
0	16652	5702.030612023395	2
0	16657	5704.817279877315	1
0	16667	5712.792199231393	0
0	16676	5714.916690127034	1
0	16677	5716.382196946222	0
0	16691	5720.726063881742	1
0	16693	5720.793489789911	2
0	16695	5721.243588971269	3
0	16696	5721.687595481236	2
0	16704	5722.431814007882	3
0	16706	5723.554629334385	4
0	16708	5724.254938970803	3
0	16713	5724.362817082798	2
0	16719	5725.180918492539	1
0	16725	5726.331215447686	2
0	16727	5726.651095141551	3
0	16728	5726.919166767243	2
0	16732	5727.985037815517	3
0	16737	5730.535324706528	2
0	16743	5731.159461479514	1
0	16750	5736.520582113122	0
0	16756	5737.458644082202	1
0	16758	5737.48297037693	2
0	16761	5739.828138767308	3
0	16762	5740.173681257253	2
0	16767	5740.571313042712	1
0	16772	5740.808640241437	0
0	16799	5748.090506496514	1
0	16805	5749.672427024332	2
0	16810	5751.219910665347	1
0	16816	5751.242005884597	2
0	16822	5753.019479101174	3
0	16823	5757.316718743978	2
0	16829	5757.536475831697	3
0	16831	5757.663161300346	4
0	16832	5759.237753278367	3
0	16839	5760.175474926345	2
0	16844	5760.898284826732	1
0	16850	5760.998019396814	2
0	16852	5761.140773806166	3
0	16853	5761.469669538492	2
0	16861	5766.191076921662	3
0	16863	5767.073402509603	2
0	16868	5767.633039498439	1
0	16876	5768.535490389413	2
0	16878	5769.357843773474	3
0	16883	5772.867074711099	2
0	16891	5777.851409775584	1
0	16898	5780.213933792864	0
0	16905	5781.210591577923	1
0	16909	5784.6722664541	0
0	16915	5785.006018952474	1
0	16922	5792.064088437005	0
0	16931	5794.780890290508	1
0	16932	5795.134906654605	0
0	16938	5795.342742512487	1
0	16940	5796.880791481786	2
0	16941	5797.192044635153	1
0	16946	5797.392548158152	0
0	16960	5799.225623515693	1
0	16963	5801.572657355557	0
0	17001	5808.449833371301	1
0	17005	5812.471234148179	2
0	17007	5814.756260060131	1
0	17013	5815.471844890704	0
0	17029	5817.995112654584	1
0	17030	5819.842654124626	0
0	17046	5825.927398322499	1
0	17047	5826.591618795951	0
0	17070	5836.28620538162	1
0	17077	5841.345732875498	0
0	17084	5847.606652147615	1
0	17085	5848.009905115686	0
0	17102	5851.937361022725	1
0	17103	5852.103825239323	0
0	17120	5857.887483535366	1
0	17122	5859.248430908735	2
0	17127	5862.244349826161	1
0	17132	5862.570467712995	0
0	17146	5865.138110955115	1
0	17148	5865.462967827437	2
0	17149	5866.063808076366	1
0	17156	5866.405115258412	2
0	17157	5867.718373128974	1
0	17169	5871.080683008491	2
0	17172	5871.557792827424	3
0	17173	5877.591753620977	2
0	17178	5877.912654769396	1
0	17187	5879.613073951779	2
0	17189	5880.579342432186	1
0	17194	5880.650072929804	0
0	17205	5882.282379086797	1
0	17209	5883.165169134197	0
0	17217	5888.649941186107	1
0	17219	5890.239950940991	2
0	17220	5893.654833331413	1
0	17227	5894.502476988982	2
0	17228	5896.724825123747	1
0	17234	5897.703932704146	0
0	17251	5902.002934288368	1
0	17253	5902.657277270844	2
0	17255	5902.978108999349	3
0	17257	5905.305196461519	4
0	17258	5906.20687213015	3
0	17266	5908.563636665576	2
0	17271	5909.009924308938	1
0	17276	5909.200058415764	0
0	17291	5912.425479457625	1
0	17295	5914.14218645102	2
0	17301	5916.322034996058	3
0	17302	5917.464249944222	2
0	17307	5919.079909840647	1
0	17314	5920.469077965281	2
0	17316	5922.266192165049	1
0	17323	5925.096591734015	0
0	17340	5930.110498904976	1
0	17343	5930.266947168257	0
0	17380	5942.681210302859	1
0	17382	5943.224877761875	2
0	17385	5944.129574088112	1
0	17391	5945.512626461927	0
0	17409	5954.207990388076	1
0	17412	5955.13767339035	0
0	17421	5958.088455028787	1
0	17422	5965.509362298475	0
0	17433	5970.311633269701	1
0	17435	5974.694136425032	2
0	17436	5974.770076886913	1
0	17441	5975.066302318225	0
0	17450	5975.212557056203	1
0	17456	5976.950417272521	0
0	17464	5979.123857592939	1
0	17466	5979.603080473401	2
0	17470	5983.766898842187	1
0	17475	5984.783733143148	0
0	17486	5985.37897759551	1
0	17487	5986.982920208913	0
0	17493	5988.541123367252	1
0	17494	5988.703671719615	0
0	17512	5993.966946641286	1
0	17515	5997.394488519258	0
0	17526	5997.908264223898	1
0	17528	5998.757655537583	2
0	17529	6000.382088274944	1
0	17535	6002.737295607365	0
0	17551	6007.393096847054	1
0	17557	6016.775706087542	0
0	17584	6024.201259131513	1
0	17587	6024.742181417893	0
0	17635	6050.303894434817	1
0	17639	6053.876587895237	2
0	17640	6053.925729954797	1
0	17646	6054.643797597394	2
0	17650	6058.270888129899	1
0	17661	6061.194504275403	0
0	17677	6064.392218105818	1
0	17681	6068.224031336311	0
0	17687	6068.354337548703	1
0	17688	6069.258300297316	0
0	17701	6074.055797759657	1
0	17709	6076.919197384133	2
0	17710	6077.013540110757	1
0	17715	6077.77892010781	0
0	17722	6079.941024892395	1
0	17724	6081.926644476571	0
0	17731	6082.117874295209	1
0	17732	6083.894497553693	0
0	17758	6093.380235870098	1
0	17760	6093.947726612638	2
0	17762	6094.704007886219	3
0	17765	6095.222122188215	2
0	17770	6095.893966631513	1
0	17777	6100.443931984608	0
0	17784	6101.660760250872	1
0	17786	6102.575606179693	2
0	17787	6105.136357198507	1
0	17794	6105.641062994717	0
0	17801	6106.732291089748	1
0	17802	6107.254053521629	0
0	17816	6108.073578413619	1
0	17820	6113.139153983422	0
0	17824	6113.262651523935	1
0	17830	6115.513286130115	2
0	17836	6117.288864672335	3
0	17838	6117.735067103466	4
0	17840	6118.161637075201	5
0	17842	6119.667939953558	6
0	17845	6120.708454877912	5
0	17853	6121.666196812406	4
0	17858	6121.686934715073	3
0	17864	6122.985126569953	4
0	17867	6123.625810416234	3
0	17872	6124.082044571436	2
0	17880	6127.234581187076	3
0	17882	6129.134189370667	2
0	17888	6130.278158537965	3
0	17890	6131.117984305561	4
0	17899	6133.358820676107	5
0	17900	6133.417451932649	4
0	17907	6135.097582870446	5
0	17913	6136.173926785318	6
0	17914	6136.254913594861	5
0	17920	6136.894737678153	6
0	17926	6140.5985087596	5
0	17935	6141.614722478503	6
0	17936	6144.2858240552	5
0	17942	6144.499532904814	4
0	17948	6144.602298866507	5
0	17949	6145.420832007944	4
0	17956	6147.586512345155	5
0	17957	6148.333989189356	4
0	17965	6152.122131233822	5
0	17966	6153.161754772964	4
0	17973	6153.718238662568	5
0	17975	6154.449039259147	6
[...]
4	77372	26403.050161588749	7719.0991452267
4	77383	26406.651501675678	7717.8380481325
4	77409	26412.927329194887	7720.4875561258
4	77435	26421.37610820896	7717.2215716037
4	77446	26423.871901468307	7705.5520601073
4	77763	26520.37291476718	7801.4800284449
4	77768	26524.944515484343	7797.4200707222
4	77781	26530.485532377745	7796.401052657
4	77794	26536.059618399035	7791.5088741242
4	77799	26538.142215736491	7788.2861179727
4	77809	26544.126217431315	7791.8196623377
4	77823	26546.907449025368	7794.1378795741
4	77828	26548.573435114671	7792.937441214
4	77837	26554.234777242079	7797.6072371569
4	77844	26560.342525033146	7801.7035448638
4	77859	26567.0979924772	7802.6628018451
4	77894	26575.995235876671	7798.4762914427
4	77899	26576.005821657589	7795.725977987
4	77910	26584.377893744481	7801.253417107
4	77944	26594.08613323178	7787.5083713892
4	77956	26598.776979310788	7789.812977491
4	77967	26601.558036895625	7789.2291730948
4	78032	26624.135632671551	7794.023189194
4	78037	26624.772482098212	7780.5091857037
4	78042	26625.566679060836	7778.0227287938
4	78048	26628.046101715456	7779.348272303
4	78057	26630.713190828995	7781.5411073802
4	78075	26638.424338681298	7776.2253376154
4	78143	26664.178492874078	7798.9927438091
4	78216	26691.531389690904	7819.5122319338
4	78221	26693.371398367263	7816.8152270307
4	78226	26697.258170730913	7817.9920635551
4	78231	26698.036123580551	7800.2677597257
4	78242	26703.221105307732	7799.4145187397
4	78253	26707.741478171076	7797.9444184016
4	78260	26708.247542975363	7795.2038534204
4	78265	26712.248605315176	7799.2037858347
4	78274	26716.016555967173	7800.6969134381
4	78342	26741.130843184712	7820.2681253507
4	78349	26741.768305196976	7820.580731134
4	78360	26751.157747782355	7821.4002808577
4	78369	26754.469631564607	7821.2274329401
4	78427	26777.713884907112	7843.0860788417
4	78885	26916.215349643276	7981.4482957071
4	78892	26921.675366218424	7981.6766224681
4	78911	26928.880378950121	7985.8135558031
4	78974	26946.604430006324	8001.7067374964
4	78979	26950.315897412004	7998.3550521905
4	78987	26952.301794267459	7996.633960728
4	79001	26954.708468731168	7995.2874435922
4	79038	26973.253147522307	8008.8392145489
4	79060	26977.565332836479	8012.1511524915
4	79066	26979.914267876276	8012.5080868713
4	79073	26981.322256631319	8012.9734818361
4	79091	26988.283263281323	8013.57692536
4	79117	26991.877964421023	8017.0671403622
4	79124	26993.013219069291	8015.2487882749
4	79134	26995.811717330045	7997.3683384657
4	79184	27011.557208712337	8005.413338932
4	79189	27011.948787916504	8001.6684583052
4	79200	27016.486458901908	8001.2846826179
4	79218	27022.628014543845	7991.8364607917
4	79234	27025.670136454629	7993.9909361438
4	79263	27051.34712056407	8015.405867983
4	79315	27064.425016779768	8028.2802999906
4	79326	27067.661471100351	8027.6555699878
4	79372	27082.312844374913	8039.3243522595
4	79377	27083.307299679808	8029.3109150515
4	79384	27089.299919611067	8018.305580377
4	79396	27094.682841199402	8020.6878140216
4	79406	27098.53541551559	8023.2342563572
4	79423	27101.199628359338	8021.3102473298
4	79430	27105.677811634538	8014.5201894828
4	79437	27107.628038485049	8005.8119297167
4	79448	27116.484880723422	8013.4444959356
4	79557	27147.830555662141	8037.7201693042
4	79576	27153.942280884018	8039.0960829055
4	79582	27154.19833158065	8029.4391932284
4	79591	27157.033780599238	8004.2940601919
4	79624	27167.478914991704	8005.964016164
4	79642	27173.273386591874	8007.7562514439
4	79653	27177.907788959283	8008.2088042629
4	79685	27189.974460428689	8007.3668279754
4	79690	27190.934022607394	8001.0794762865
4	79700	27194.83739870923	7992.6240267616
4	79711	27195.983461208359	7993.4377552011
4	79718	27197.57061919673	7991.256136227
4	79725	27198.015434535086	7991.0584381224
4	79742	27205.865242595189	7997.1645594346
4	79758	27211.138140199817	7990.6275957059
4	79767	27215.317534358157	7991.41898461
4	79783	27219.910793306143	7995.1454788433
4	79799	27223.41241848957	7993.9004690927
4	79860	27243.911740113178	8013.9571351517
4	79871	27247.956949634715	8004.018918957
4	79899	27254.444790571615	8002.697114141
4	79908	27258.142425813311	7989.3415310636
4	79913	27258.295078955877	7976.3862287816
4	79918	27259.895118213486	7976.6483997776
4	79927	27264.213081012098	7971.8260434986
4	79950	27272.697238275628	7980.1849867921
4	79976	27277.636894357363	7982.2938330941
4	79983	27280.024525301993	7981.8857239626
4	80001	27282.900393896893	7977.8183628167
4	80055	27299.88767742384	7986.2338490381
4	80107	27314.528455300889	7989.6929896039
4	80117	27316.729276075186	7989.6761638048
4	80127	27317.187701212539	7985.0775750802
4	80132	27318.882305069518	7986.5166051463
4	80138	27319.496095259526	7980.1146548513
4	80145	27337.978277085734	7986.2845454662
4	80171	27346.958838095797	7995.2414597123
4	80179	27348.037254834294	7985.5477350608
4	80203	27354.777762756176	7992.1832999726
4	80214	27360.021916121814	7970.7554675237
4	80219	27364.046317540716	7974.5958007145
4	80232	27373.238146889558	7983.0821560321
4	80280	27388.138808967991	7984.9541195367
4	80291	27388.985830054561	7984.6495453383
4	80308	27395.731472008605	7988.0054385808
4	80337	27403.071885554495	7991.0436080526
4	80350	27405.037295965912	7969.9363885631
4	80365	27410.236470659842	7971.7598938044
4	80374	27413.290382371381	7967.0736890757
4	80423	27442.532395842023	7996.0964173792
4	80434	27445.937006778189	7991.769583619
4	80439	27448.77353611699	7984.5923555786
4	80444	27452.703759693406	7985.3341433222
4	80451	27453.611257002286	7967.5002418705
4	80462	27460.170679992217	7969.0717896303
4	80499	27469.438946479272	7977.294544046
4	80508	27471.727140598519	7948.3223271468
4	80528	27479.452278855966	7946.2289009575
4	80549	27487.868186398128	7947.7133328035
4	80556	27491.671212907614	7941.4490589182
4	80567	27495.396456895291	7927.6849165327
4	80582	27497.547523480717	7924.3653106357
4	80592	27499.079652568843	7924.5582147703
4	80606	27505.289064336452	7929.5039278187
4	80669	27521.498814420127	7945.3109978313
4	80674	27522.968123163346	7945.8550818986
4	80684	27531.239819193718	7951.4487903531
4	80708	27540.021142600661	7960.0501007234
4	80719	27545.494144701422	7964.181771815
4	80755	27561.045228747247	7976.2417342723
4	80760	27561.308217631328	7973.6131039975
4	80765	27562.91361103843	7973.7154274959
4	80770	27565.716419578381	7972.6513681554
4	80777	27566.628377478652	7973.4072857646
4	80796	27572.239130033182	7977.4679549235
4	80826	27585.831966064904	7984.4766132636
4	80846	27589.140174922536	7983.862277044
4	80879	27602.321864021186	7996.8792118652
4	80884	27603.024126354419	7987.0234878544
4	80904	27613.830946238828	7996.9003179271
4	80940	27624.857972338064	8002.4841720181
4	80958	27631.812851566182	8005.1031360657
4	81027	27653.614463963145	8025.489844918
4	81057	27661.88668528533	8030.6602763269
4	81213	27712.182102677757	8055.6282457722
4	81218	27714.569603481279	8057.0613248725
4	81225	27717.362809447767	8057.9796948402
4	81244	27723.948254523363	8061.2167031921
4	81263	27731.771935334586	8053.2806301483
4	81268	27731.850576261699	8048.2985125018
4	81273	27737.346703037607	8047.7567633859
4	81278	27740.092574678958	8041.0025896618
4	81289	27744.09258846762	8042.6554589523
4	81321	27753.613525316378	8041.8009290673
4	81329	27755.533976390311	8024.9188426257
4	81339	27757.090583002594	8018.5665002219
4	81350	27762.176321818577	8021.9620824557
4	81362	27771.538682597049	8029.2398720913
4	81409	27792.213972162612	8041.8460625919
4	81414	27792.905158372426	8040.5152355449
4	81423	27798.848221161684	8044.2444524746
4	81448	27806.508558616283	8049.3734753841
4	81487	27818.860051244579	8058.8608820846
4	81499	27823.051402724644	8054.3829769873
4	81510	27824.165356503744	8051.2323505873
4	81526	27834.15918716267	8057.2513267525
4	81553	27838.022040534855	8060.0352563021
4	81560	27842.022848272349	8056.7119254942
4	81582	27847.420895488892	8051.3106859718
4	81589	27848.193623828084	8042.7553179337
4	81594	27849.280578697723	8041.0199619852
4	81603	27850.656218625013	8042.137576807
4	81625	27858.371997888352	8038.3083808504
4	81630	27859.07982187379	8038.1096129943
4	81635	27860.958980017944	8026.7545645467
4	81641	27864.732080512267	8030.0025934841
4	81652	27872.217132219872	8035.2706072148
4	81673	27876.291917228372	8036.4402548247
4	81714	27890.775212115046	8039.8435908074
4	81720	27891.050056493733	8034.7329737277
4	81725	27891.071495358099	8030.6870219335
4	81734	27895.061943666695	8031.4050204567
4	81744	27896.748194489981	8029.6350701773
4	81751	27902.85704767025	8025.9929857558
4	81765	27906.251965767877	8026.9273920002
4	81792	27923.931917477659	8044.0102542413
4	81842	27933.914130814763	8050.0746016967
4	81855	27935.878935747535	8050.7881963214
4	81867	27939.955768582346	8038.2575989319
4	81876	27942.508131039648	8035.6367643919
4	81897	27948.623778123524	8041.2527708176
4	81909	27954.337608010506	8046.3554913502
4	81914	27954.575056781759	8046.0227335176
4	81927	27957.387363521569	8046.1415255791
4	81945	27957.927468279461	8045.0736572457
4	81954	27960.55709964369	8044.3520664572
4	82007	27972.913256395423	8051.0643736983
4	82019	27981.897069951612	8053.0368552913
4	82055	28000.431238547935	8070.216880025
4	82094	28007.639537751669	8074.4218719758
4	82106	28009.22159611207	8075.723909325
4	82139	28018.963474727268	8079.8432127002
4	82163	28024.326292166082	8079.7828065293
4	82190	28030.529146949721	8080.7472779208
4	82199	28034.446838393451	8075.9344788996
4	82217	28037.195245470898	8068.2293366561
4	82231	28045.319900409128	8075.0722012189
4	82271	28054.244540423686	8071.5505569722
4	82324	28078.075700523233	8086.4868808136
4	82329	28078.379643246615	8081.4254803238
4	82343	28081.497374837239	8082.8254500293
4	82358	28084.278331956453	8083.1951743092
4	82370	28086.824881173147	8083.953045819
4	82375	28088.688749877436	8070.3301772345
4	82384	28092.519354908391	8073.6915326732
4	82409	28097.817217934181	8068.6838958968
4	82435	28105.660587678462	8074.0169330308
4	82440	28107.182769889166	8073.2721813361
4	82447	28109.001201370816	8065.6474520014
4	82457	28113.531709556859	8066.0913984563
4	82465	28117.050981597851	8065.3133896926
4	82475	28120.30770460785	8063.7099577781
4	82539	28135.96036926409	8074.9612627497
4	82622	28154.751951511908	8093.4730774619
4	82692	28179.433076830729	8113.6412691897
4	82697	28180.327261540469	8106.6015694841
4	82712	28193.478473786426	8115.1430204816
4	82752	28206.050216888877	8127.1453894839
4	82757	28206.980548714748	8128.0179348635
4	82770	28207.964719938414	8127.0615130487
4	82837	28226.758340797495	8138.3003728172
4	82872	28238.001791518379	8147.5518647182
4	82900	28242.709654763431	8151.4436704585
4	82905	28244.345703329845	8144.9520463658
4	82911	28248.443237601297	8141.7204647136
4	82916	28249.983759271553	8139.9072302834
4	82929	28257.044785572296	8140.4731096805
4	82963	28267.515662730455	8147.6862437726
4	82973	28274.110846560039	8152.9372334786
4	82983	28276.176727650214	8152.2706372599
4	82995	28282.170533482645	8153.8315937327
4	83004	28284.375655865014	8155.981297032
4	83017	28286.872634308518	8143.2299402263
4	83042	28294.063756256051	8149.6470577681
4	83082	28310.459910295071	8165.7007174029
4	83097	28316.52469500994	8167.8586447299
4	83160	28339.749974114663	8179.8822707322
4	83171	28341.793071854336	8180.5780722041
4	83185	28342.731700884197	8178.0555517235
4	83205	28346.992957515715	8176.3500656302
4	83291	28373.126916997075	8182.7126217393
4	83378	28390.624337552519	8196.4018672292
4	83388	28402.509048996786	8206.3331984026
4	83407	28406.40851665372	8207.9209267186
4	83412	28408.348741973694	8208.8384624534
4	83417	28409.068829183634	8206.833152581
4	83424	28410.44693994342	8195.5385179093
4	83441	28415.188199936297	8190.0529652068
4	83463	28426.22890035242	8200.1160826391
4	83478	28429.747859304361	8203.333296972
4	83483	28430.244280185402	8195.9283334247
4	83490	28431.040774607533	8192.9412561147
4	83500	28434.338645017951	8189.8913070274
4	83512	28435.699596091082	8190.1048469532
4	83517	28436.711947305774	8187.3950186975
4	83522	28438.19805557475	8188.1126409016
4	83527	28439.961610913192	8185.7045435197
4	83539	28446.607081273395	8173.6641499116
4	83561	28456.068431014068	8174.2389802367
4	83570	28460.533280933956	8167.8716975385
4	83607	28476.036159024285	8183.3034512747
4	83614	28477.912736065303	8173.8688573719
4	83629	28483.143969378577	8177.3802031925
4	83658	28491.451324485909	8175.3658611634
4	83677	28496.425175563481	8152.9655626365
4	83684	28500.767741121284	8150.7779898995
4	83693	28504.795652521517	8151.2640428598
4	83708	28508.809543763413	8146.5687057174
4	83742	28518.908723155229	8152.0620384611
4	83747	28520.061948421322	8140.1554905772
4	83752	28522.114403712392	8142.0409790649
4	83759	28527.805133641216	8147.5932265991
4	83770	28534.387963561872	8145.3309844161
4	83795	28544.490268690274	8150.7641676834
4	83827	28551.358488829463	8149.6748900895
4	83836	28555.201329634073	8144.0877918769
4	83860	28560.13060891691	8143.3535232203
4	83868	28569.615882413362	8151.0785529213
4	83875	28574.347086974034	8152.8527021021
4	83891	28582.783390021801	8159.0597457061
4	83947	28605.676802023463	8168.5476417812
4	84014	28628.990442726312	8190.5948178214
4	84065	28646.545485388747	8207.0885493854
4	84082	28650.280447075078	8206.6549440808
4	84105	28654.646249835057	8208.632574058
4	84112	28656.545300725637	8209.4435455459
4	84129	28663.471610767497	8211.7772242246
4	84205	28688.462881274008	8229.651176298
4	84224	28698.327369818474	8230.5964202552
4	84238	28702.897111465925	8224.191589802
4	84243	28704.622619208863	8224.2647325579
4	84252	28705.816229933803	8221.172375716
4	84291	28717.376448981341	8220.0756006773
4	84548	28800.194095807887	8299.7366637945
4	84556	28800.952408632027	8297.0532860496
4	84566	28801.199341801734	8292.4702153291
4	84573	28803.220745111571	8292.9936607193
4	84586	28809.108855682617	8276.3773853202
4	84627	28820.075501435148	8282.8212362847
4	84639	28824.401613390075	8287.06292551
4	84644	28825.291075900891	8281.7998864187
4	84651	28828.737743801512	8276.6655712105
4	84666	28834.042930897402	8281.3748342882
4	84689	28845.600308094521	8289.933842157
4	84769	28862.725306919172	8299.1514895049
4	84815	28873.541960216901	8309.1885749307
4	84822	28876.313907640321	8304.848254023
4	84846	28883.641069152001	8299.8969255852
4	84851	28885.203487773924	8289.3770797206
4	84856	28886.781119996484	8289.7343870873
4	84863	28889.755133620296	8290.3075657856
4	84877	28893.702418717656	8292.3573002637
4	84893	28895.640705145827	8278.273276247
4	84913	28906.119979915156	8286.6357195307
4	84935	28914.203708406601	8291.381128133
4	84946	28918.406757870341	8288.3319262834
4	84958	28924.523129004032	8293.7950258276
4	84963	28926.994166891497	8280.0542385817
4	84974	28930.157750793709	8275.7332059752
4	85115	28979.938074514732	8314.8588386589
4	85136	28990.644692035426	8324.5102757167
4	85141	28991.459850904719	8323.6969889233
4	85152	28997.070660417486	8328.9588249183
4	85166	28998.658522257685	8304.8128114399
4	85175	29001.236429601572	8305.8358458192
4	85217	29009.160140078323	8309.510551165
4	85228	29015.17357333859	8314.9433933168
4	85247	29022.257995142436	8321.9863150649
4	85254	29022.536762520928	8321.7414380217
4	85275	29038.563945660221	8326.392929063
4	85292	29049.366939838772	8329.1690606931
4	85301	29051.957528903651	8318.9931423486
4	85315	29058.570656267486	8318.2659978576
4	85331	29062.725360981194	8320.4949583348
4	85336	29062.907163632288	8312.539632712
4	85350	29070.489515303385	8306.1229160859
4	85443	29093.995240664435	8308.909448392
4	85450	29094.847184436361	8285.7667845082
4	85468	29100.085189296089	8290.7178806814
4	85504	29115.551796121303	8298.3847669606
4	85588	29132.19762664837	8311.7228042028
4	85596	29137.165851953249	8311.1153554287
4	85654	29155.583039522768	8315.2877792588
4	85659	29160.856935834755	8288.218161152
4	85666	29165.234355823475	8287.4573491393
4	85671	29165.358242901441	8287.3232312956
4	85680	29171.813975464415	8293.3168533666
4	85745	29189.120516715459	8309.742770587
4	85750	29191.016506671077	8310.101412967
4	85765	29196.053348094191	8293.9692494441
4	85785	29199.427887535885	8288.4106621779
4	85790	29199.805272333366	8287.6237041011
4	85799	29207.905682285092	8284.3423840354
4	85806	29214.880833354179	8287.5128545649
4	85824	29221.613799475692	8290.9140048061
4	85831	29224.906251899096	8290.7031964865
4	85846	29235.702182474796	8280.2819541297
4	85857	29243.892508127575	8283.3287372528
4	85882	29260.239478308815	8298.6858592124
4	85911	29269.765986712923	8301.4705094287
4	85969	29287.336019261514	8318.0868111425
4	86016	29299.320957019911	8320.668998338
4	86021	29300.397214995414	8321.2123532714
4	86026	29300.624965546645	8311.6852073777
4	86032	29303.019592859346	8310.6242303341
4	86041	29311.461221545498	8316.0757996306
4	86060	29314.298795612067	8318.7259899893
4	86066	29316.341002189537	8313.3299240477
4	86071	29317.311232970935	8311.992657707
4	86076	29318.342382033611	8305.7367812919
4	86085	29320.393769781187	8306.8535671444
4	86118	29329.980209399101	8312.7779491174
4	86132	29337.336748935093	8312.2713140952
4	86161	29347.164581586337	8315.7182237236
4	86181	29353.665557959336	8298.5015753462
4	86199	29357.225511861282	8294.4788287445
4	86211	29361.823623112192	8297.2172477627
4	86256	29385.399411584126	8317.1132738575
4	86382	29420.643845136738	8335.9368465136
4	86403	29428.575145863536	8326.4290334925
4	86409	29429.20895487901	8325.5269496086
4	86414	29429.998975208018	8324.2856162461
4	86427	29435.681281711255	8320.1062516114
4	86473	29447.836389737025	8329.3023685624
4	86541	29474.886020474757	8348.6126511874
4	86554	29478.675051085237	8345.5522353509
4	86573	29484.801305086455	8340.5666471993
4	86584	29488.564161857232	8342.3179528261
4	86623	29505.870179638336	8345.3887805917
4	86637	29510.608638151035	8343.749193698
4	86679	29526.652522425898	8351.8248600421
4	86710	29538.852618500576	8357.533680068
4	86715	29542.51876634889	8342.4389641258
4	86724	29547.996793290475	8346.7720633798
4	86741	29552.474828877832	8350.3481268347
4	86753	29561.636673415402	8357.9777239936
4	86807	29577.452130415103	8370.7773239111
4	86815	29578.107885336236	8363.4227472083
4	86820	29582.132194185977	8358.1926031837
4	86825	29583.090184632881	8356.8150676823
4	86832	29583.834069705773	8347.1848755026
4	86860	29597.055404140168	8353.5310583234
4	86866	29597.376726474126	8340.3098710092
4	86872	29598.282746388801	8339.624588341
4	86885	29601.048694861129	8303.7558999836
4	86909	29610.569377591936	8313.002270236
4	86914	29611.658462589974	8312.6172639896
4	86920	29617.429596161489	8305.7944876626
4	86931	29620.143586998204	8306.5277966341
4	87186	29713.367518285245	8394.5882514818
4	87201	29716.624405380756	8396.7091433
4	87206	29718.004909751419	8393.6218328647
4	87221	29723.365247291554	8392.7648328116
4	87248	29731.439237563393	8400.3220796837
4	87260	29734.794240627799	8399.3876778723
4	87271	29741.427517174886	8396.0047230545
4	87399	29790.776217900238	8444.0805874933
4	87405	29791.783400683193	8429.0262736633
4	87416	29796.388069663104	8433.5295092731
4	87553	29846.40351989707	8462.3617821209
4	87558	29847.519297298828	8462.0305332658
4	87563	29847.879286756344	8460.2213107496
4	87574	29852.318315041711	8459.0060513087
4	87599	29863.195173868151	8460.9529944157
4	87606	29865.002505122775	8462.03376391
4	87632	29870.214619612296	8466.1438388893
4	87640	29873.737358154734	8462.1807953723
4	87649	29875.896791369562	8441.3787754643
4	87658	29877.984238763486	8431.8297245568
4	87675	29881.513708414032	8420.6134397164
4	87687	29885.460864174155	8411.0808348348
4	87694	29892.062824201666	8414.0648991024
4	87737	29901.507765454955	8417.2662804288
4	87762	29907.774060449908	8416.9374869205
4	87769	29907.944955522346	8416.398944768
4	87788	29913.061391786001	8420.2024772279
4	87795	29914.485257465002	8416.0745197765
4	87804	29922.880381687179	8420.8342029517
4	87820	29928.462651672858	8424.9667235463
4	87835	29934.94104965999	8431.1305126543
4	87863	29937.509004263153	8425.9217128523
4	87885	29955.670228545824	8431.4014554834

