version 2
run Third-n3-10-20191016-17:04:53-15112
attr configname Third-n3
attr datetime 20191016-17:04:53
attr experiment Third-n3
attr inifile omnetpp.ini
attr iterationvars ""
attr iterationvarsf ""
attr measurement ""
attr network org.omnetpp.queueing.Pizza
attr processid 15112
attr repetition 10
attr replication ""
attr resultdir results
attr runnumber 10
attr seedset 10
param **.PS.maxInventoriedPS 3
param **.U1.interArrivalTime exponential(4s)
param **.U2.interArrivalTime exponential(6s)
param **.PS.serviceTimeForInventoryU1 exponential(1.4s)
param **.PS.serviceTimeForInventoryU2 exponential(1.4s)
param **.PS.serviceTimeDirectU1 exponential(1.8s)
param **.PS.serviceTimeDirectU2 exponential(1.8s)
param **.PS.probabilityProducing 0.8
param **.CS.serviceTimeU1 exponential(2.3s)
param **.CS.serviceTimeU2 exponential(2.3s)

vector 0 Pizza.EntryQueueU1 queueLength:vector ETV
attr interpolationmode sample-hold
attr title "queue length, vector"
vector 1 Pizza.CS queueLength:vector ETV
attr interpolationmode sample-hold
attr title "queue length, vector"
vector 2 Pizza.EntryQueueU2 queueLength:vector ETV
attr interpolationmode sample-hold
attr title "queue length, vector"
vector 3 Pizza.sink lifeTime:vector ETV
attr interpolationmode none
attr title "lifetime of arrived jobs, vector"
attr unit s
vector 4 Pizza.sink lifeTimeU2:vector ETV
attr interpolationmode none
attr title "lifetime of arrived jobs, vector"
attr unit s
vector 5 Pizza.sink lifeTimeU1:vector ETV
attr interpolationmode none
attr title "lifetime of arrived jobs, vector"
attr unit s
0	0	0	0
0	10	5.901737779903	1
0	14	6.920257362895	2
0	15	7.459240497746	1
0	21	8.163007600122	0
0	36	12.637577780978	1
0	37	15.905185338345	0
0	49	19.336064886412	1
0	52	21.269086107172	0
0	76	28.836251240849	1
0	78	29.107496667546	2
0	79	30.02975989134	1
0	89	33.311327008271	2
0	90	33.365015873609	1
0	96	35.251433795215	0
0	118	42.883506163654	1
0	120	43.403732024695	2
0	124	46.576363713719	3
0	126	47.173996319226	4
0	127	47.567488757352	3
0	133	48.061311680693	4
0	135	49.794626380486	5
0	140	51.277594676274	6
0	141	51.670068643667	5
0	147	52.681284777885	6
0	149	54.256488207932	7
0	154	56.776451270159	8
0	157	58.180749318938	9
0	159	58.743737866507	10
0	162	61.044339914243	9
0	167	62.159136398006	8
0	172	63.477791598768	7
0	178	64.879333438654	6
0	185	65.627577436813	7
0	186	67.263153451522	6
0	194	69.314959033158	5
0	201	69.691486542449	6
0	204	70.153321472308	5
0	209	70.247114337343	4
0	216	71.297693511276	5
0	217	71.357249957748	4
0	224	73.369082860521	3
0	231	75.345500004161	4
0	235	77.507267181014	5
0	236	78.209494277697	4
0	241	78.541891878879	3
0	246	79.241330436775	2
0	254	80.8652354591	1
0	260	81.228598248984	2
0	262	83.378208157237	1
0	269	84.175017654476	0
0	275	84.562900192132	1
0	288	92.617265007935	2
0	289	93.040729854347	1
0	299	95.025798495828	0
0	321	99.838365553499	1
0	323	99.989565207614	2
0	324	101.477422772347	1
0	330	103.382417413497	0
0	349	108.023719479969	1
0	350	108.620125460988	0
0	379	115.45854545875	1
0	385	120.21644808373	0
0	391	120.746516093811	1
0	392	120.760636953011	0
0	398	120.94591661957	1
0	403	124.073030432176	2
0	406	125.994290708911	3
0	407	127.635690514299	2
0	412	127.791495629548	1
0	422	129.545095802554	0
0	446	136.210432049006	1
0	453	139.004729447072	0
0	465	140.945675974045	1
0	468	142.747466518856	0
0	481	147.783501504131	1
0	483	148.666590269617	2
0	485	149.20929380454	3
0	486	151.034812224888	2
0	492	151.50093668637	3
0	496	151.6540612333	4
0	499	153.598248537951	3
0	506	154.06805505536	4
0	507	155.472409434358	3
0	512	155.526944703857	2
0	518	156.013326041845	3
0	520	156.954178970301	4
0	521	157.628967676299	3
0	528	159.629961525056	2
0	535	162.309391670253	1
0	543	162.714818607694	0
0	549	163.060357370515	1
0	551	163.828942713434	2
0	558	167.977564206525	1
0	564	169.939506733406	0
0	570	169.99336605714	1
0	575	171.647430582405	2
0	578	173.126627514534	1
0	585	173.580742919752	2
0	586	177.380443572027	1
0	592	178.180616978003	0
0	598	179.277500158702	1
0	602	181.923730601347	0
0	621	189.736224455829	1
0	623	191.136553409038	2
0	624	191.530567722576	1
0	634	193.074786500964	2
0	636	195.90864943416	3
0	637	197.597968456379	2
0	642	198.14942593009	1
0	647	198.253545759122	0
0	664	199.673786962019	1
0	665	199.705497603088	0
0	679	201.129111180079	1
0	680	201.493041368631	0
0	686	201.687133305869	1
0	689	202.173642315263	0
0	695	203.753635241295	1
0	700	205.036080976131	2
0	702	206.179751784728	1
0	708	206.794893411643	2
0	713	208.113807205017	1
0	720	209.161397367054	0
0	728	209.884932407078	1
0	731	211.128008263515	2
0	733	211.209557647573	3
0	737	213.335549501021	4
0	739	214.15316815849	5
0	740	214.275281906341	4
0	748	216.212519182642	3
0	753	216.81002380634	2
0	759	217.26543314922	3
0	760	217.676528887378	2
0	764	219.101065531288	3
0	767	223.018161092909	2
0	771	225.594724846034	3
0	775	226.855996793449	2
0	780	227.502935239387	1
0	786	229.587946053719	2
0	791	230.810804345347	3
0	792	230.831924944305	2
0	797	231.565087673237	1
0	805	236.791696667697	0
0	826	245.536433908992	1
0	827	246.716405396842	0
0	839	248.854497237011	1
0	840	249.053683776703	0
0	856	251.99085718006	1
0	859	252.233350742379	2
0	861	254.312676893187	3
0	863	254.608440615383	4
0	864	254.629370566242	3
0	871	255.166296070124	4
0	872	256.095522257032	3
0	878	257.406187083829	4
0	879	258.113092223022	3
0	885	258.500913385108	4
0	888	259.474235716297	5
0	891	263.004929819207	4
0	897	263.619352666884	5
0	899	264.117095370559	6
0	902	264.955189536082	7
0	903	265.711854949043	6
0	912	271.453548866024	7
0	914	272.23658054664	8
0	915	273.265445677195	7
0	920	274.778659345425	6
0	927	275.104177809242	5
0	933	277.310008864207	4
0	938	277.408066741145	3
0	943	280.780951271386	2
0	947	281.583218412151	3
0	951	283.671784774731	4
0	953	285.437917707107	5
0	955	285.706354784746	6
0	964	290.6571781288	7
0	966	291.589585489724	8
0	972	296.417901364184	9
0	975	300.802625024813	8
0	981	301.232379328137	9
0	983	301.484646789192	8
0	993	304.999638627616	9
0	994	306.188072869939	8
0	999	306.719621674207	7
0	1005	307.387459309945	8
0	1009	308.164882241321	9
0	1011	309.968604782062	8
0	1017	310.813016576561	9
0	1019	311.477955197595	8
0	1025	311.629183908782	9
0	1030	314.53839365408	10
0	1031	315.325598635149	9
0	1036	316.068648530443	8
0	1042	317.351661449988	9
0	1043	318.791968485905	8
0	1048	319.866303432655	7
0	1052	320.252291033026	8
0	1058	324.60086524793	9
0	1061	325.671529073655	8
0	1065	328.395389399009	9
0	1076	333.135687771616	10
0	1078	333.675537393364	11
0	1080	334.242045716574	12
0	1083	334.371328103675	11
0	1088	334.390884913577	10
0	1092	334.907194161517	11
0	1094	335.473825995577	12
0	1096	335.84006430978	13
0	1100	339.347917875433	12
0	1106	339.620744082744	11
0	1112	339.94494056205	10
0	1117	340.855895565412	9
0	1121	341.011910629053	10
0	1126	341.719137684877	11
0	1128	342.918029424096	10
0	1134	345.831415550299	9
0	1140	346.505067716074	8
0	1146	346.681024370096	9
0	1147	346.747834944603	8
0	1154	346.944727805179	9
0	1156	348.530640690215	10
0	1161	350.082510534027	11
0	1163	350.234689923403	12
0	1165	350.93298700489	11
0	1170	351.336335735844	10
0	1175	352.053526399306	9
0	1181	352.731427415035	8
0	1186	352.810755636932	7
0	1192	353.944784784228	8
0	1194	355.732967564689	9
0	1196	357.195559846231	10
0	1197	359.337307055018	9
0	1203	361.52031044395	8
0	1208	362.080825405706	7
0	1216	364.17806890368	8
0	1218	365.017581626064	9
0	1222	367.970574606201	10
0	1223	368.495562226418	9
0	1228	369.069302394775	8
0	1239	371.198064419084	9
0	1241	371.642567628887	10
0	1242	374.193983270827	9
0	1248	374.635797066595	10
0	1249	375.306916674421	9
0	1254	375.627326284281	8
0	1259	376.290295473704	7
0	1263	376.883754193982	8
0	1267	377.12655224201	9
0	1269	377.321807925086	8
0	1275	377.892162630121	9
0	1277	379.027036197941	10
0	1280	381.152826627536	9
0	1285	382.845486253751	8
0	1293	386.355118046538	7
0	1298	387.170311355683	6
0	1302	388.676730702775	7
0	1304	390.859197941806	8
0	1308	394.666197366846	9
0	1310	397.7607911203	10
0	1311	401.159785616295	9
0	1315	402.781686381923	10
0	1317	402.816474288465	11
0	1325	408.140127057051	12
0	1328	408.723594696318	11
0	1332	408.800307754367	12
0	1334	409.286841495745	13
0	1338	413.397175689344	12
0	1343	414.170823315864	11
0	1347	415.673128245512	12
0	1354	419.336171522526	11
0	1362	419.723187637597	12
0	1363	420.429396215867	11
0	1368	420.433446984348	10
0	1373	425.136346287407	9
0	1379	425.486722377891	10
0	1381	426.767915843491	11
0	1382	427.374396078541	10
0	1386	427.478695128238	11
0	1390	429.470505975416	10
0	1397	430.643165025939	9
0	1403	432.634408969872	8
0	1408	432.667978168164	7
0	1413	439.357215242809	6
0	1417	441.456353264892	7
0	1419	442.536958943629	8
0	1422	443.610163286973	7
0	1432	449.947227042286	6
0	1440	450.728884728302	7
0	1441	450.791954795633	6
0	1447	451.289364242107	5
0	1457	455.708363608156	6
0	1458	457.475165602121	5
0	1463	458.179410445269	4
0	1467	459.345178136223	5
0	1470	460.535794421475	4
0	1477	461.211030066628	3
0	1483	462.341059983996	4
0	1486	466.378241985697	3
0	1495	470.144209414787	2
0	1500	470.170646370716	1
0	1505	471.098083648298	0
0	1509	472.950571130852	1
0	1511	473.204167083598	2
0	1516	478.674212162042	1
0	1521	478.868096840697	0
0	1528	479.621811568364	1
0	1531	482.130560205133	0
0	1547	483.971836094592	1
0	1548	484.8158595284	0
0	1567	490.828896463859	1
0	1569	491.823490661203	2
0	1571	492.07036408912	3
0	1572	492.246543284813	2
0	1579	494.54684057146	1
0	1584	494.558730851321	0
0	1604	498.737311200432	1
0	1605	499.089152542154	0
0	1618	500.043875315	1
0	1626	501.910888605228	0
0	1643	502.81009671746	1
0	1645	504.5279121492	2
0	1646	507.300718550993	1
0	1654	508.752436202576	0
0	1700	521.486093224882	1
0	1701	522.134547855745	0
0	1711	532.317167884493	1
0	1714	533.113939904084	0
0	1735	536.496050622092	1
0	1736	537.38762408072	0
0	1746	539.039468688102	1
0	1748	539.631005678032	2
0	1752	539.96654834031	3
0	1754	541.169703661048	2
0	1760	541.285687178385	3
0	1762	541.986205753227	2
0	1768	543.29794029106	1
0	1774	543.324541083717	2
0	1779	544.727106405374	3
0	1782	546.337717403931	2
0	1789	548.682832129442	3
0	1793	550.471710589035	4
0	1795	552.47253641006	5
0	1798	554.202871107397	4
0	1805	556.551819088042	5
0	1806	560.150772788085	4
0	1812	560.660436791736	3
0	1819	561.605860430972	4
0	1821	562.481678579536	5
0	1822	563.595635689561	4
0	1827	565.41995702514	3
0	1832	565.444177545153	2
0	1840	567.369893345674	3
0	1842	567.718484398909	2
0	1849	568.998974293012	3
0	1854	571.585352469481	2
0	1860	572.525009669518	1
0	1867	572.909874096719	2
0	1879	577.479498008894	3
0	1881	577.532404529492	4
0	1884	583.343122534621	3
0	1892	585.674598780814	2
0	1897	585.962018333654	1
0	1905	587.920635390563	2
0	1907	590.670806039017	1
0	1913	593.76816855012	0
0	1931	596.644762497008	1
0	1932	599.705054316575	0
0	1944	602.246674392047	1
0	1945	602.458855344821	0
0	1975	609.299154565241	1
0	1976	610.003839173918	0
0	1984	611.017953750732	1
0	1988	612.919682732016	2
0	1991	613.626475851799	1
0	1997	614.691985137734	2
0	1998	615.737982792702	1
0	2004	616.89244598564	0
0	2021	623.772400308316	1
0	2023	626.630280353094	0
0	2042	629.820780194374	1
0	2046	630.780361536843	0
0	2063	637.828718481354	1
0	2066	638.147310975917	2
0	2067	638.209750789423	1
0	2073	639.232841629618	0
0	2079	639.577016825433	1
0	2081	639.642385616022	2
0	2085	645.440163679457	3
0	2087	646.459866565223	4
0	2090	648.05529576864	3
0	2097	648.801677605145	4
0	2098	649.111795776784	3
0	2106	650.982797329602	4
0	2107	651.22771578102	3
0	2112	651.952283628792	2
0	2119	659.939238612458	1
0	2126	661.363052976186	2
0	2127	662.740698011621	1
0	2132	664.086440845169	0
0	2136	665.561617805149	1
0	2138	665.655963466275	2
0	2140	666.823006253222	3
0	2142	667.372835646762	4
0	2146	668.407886447186	5
0	2149	669.485495982936	6
0	2153	671.790681206105	7
0	2155	672.493060592905	8
0	2156	672.920537976213	7
0	2162	673.315821242483	8
0	2165	675.140722578182	9
0	2167	678.70620583883	10
0	2169	679.19062489951	11
0	2172	682.028822066905	10
0	2178	683.632381301567	9
0	2184	684.345531314511	8
0	2190	684.886426092095	9
0	2192	685.168615679897	10
0	2193	685.751165663194	9
0	2201	687.094754254427	8
0	2207	687.625495006041	7
0	2215	689.370549291537	8
0	2220	691.48944190474	7
0	2230	693.071791464383	8
0	2231	693.287577177368	7
0	2242	696.916850818879	6
0	2248	697.73514277697	7
0	2251	700.374460683037	8
0	2252	700.800381302074	7
0	2260	705.577720049173	6
0	2267	707.050064748121	5
0	2274	712.3294695882	4
0	2280	712.33423724802	5
0	2283	712.418606046557	4
0	2289	714.389650133656	3
0	2298	717.838986472387	2
0	2303	717.89707459043	1
0	2308	719.043065239207	0
0	2315	719.494878946704	1
0	2317	719.850079057998	2
0	2318	720.168923257739	1
0	2324	720.928697711335	2
0	2326	724.483228078598	3
0	2329	724.929355604236	2
0	2336	728.906131982173	1
0	2340	729.06151241826	2
0	2342	730.748628450327	3
0	2346	732.199933235187	4
0	2352	738.20699718465	3
0	2359	746.194917724955	2
0	2365	746.870269656573	1
0	2370	747.259708527923	0
0	2381	748.267139862549	1
0	2383	748.984099369053	0
0	2391	750.695724126505	1
0	2392	751.72091238692	0
0	2409	756.998844997557	1
0	2411	757.953156648493	0
0	2419	760.418055938802	1
0	2423	762.098277900093	2
0	2424	762.128955780032	1
0	2430	762.505228229006	2
0	2431	763.053388230084	1
0	2436	763.282178084256	0
0	2449	763.672123897954	1
0	2451	765.584276227977	2
0	2456	768.316479321701	3
0	2461	770.128265623615	4
0	2462	770.330532223259	3
0	2473	774.571694609378	2
0	2478	774.577922295981	1
0	2483	774.585599322208	0
0	2487	775.409846951659	1
0	2491	777.378231048461	2
0	2492	777.533201296381	1
0	2498	778.040673496897	2
0	2500	779.973815362239	3
0	2504	781.646176724333	2
0	2509	782.441433989115	1
0	2521	790.817354140669	0
0	2527	791.760335632729	1
0	2529	792.345222735609	2
0	2532	794.193380437992	1
0	2539	797.51500971747	0
0	2545	797.684457736826	1
0	2548	800.784242408104	0
0	2561	803.018007489063	1
0	2563	807.126642439716	0
0	2577	810.130498146266	1
0	2578	812.03895419539	0
0	2589	812.570156078745	1
0	2592	814.005085518683	0
0	2598	815.17026124649	1
0	2599	815.210624389983	0
0	2607	817.871038150324	1
0	2608	818.145777857699	0
0	2657	840.196163562366	1
0	2659	840.968603421095	2
0	2660	842.185066562622	1
0	2667	842.920615470938	2
0	2668	843.355277825548	1
0	2675	844.879105349508	2
0	2679	848.412208058252	1
0	2685	848.893879764149	0
0	2691	850.236418738651	1
0	2692	850.394977708576	0
0	2699	850.955825937585	1
0	2701	851.913622417327	0
0	2721	857.328806546618	1
0	2726	863.632514233393	0
0	2733	866.351651237699	1
0	2734	867.4708792767	0
0	2740	867.921227149998	1
0	2742	868.722800318061	2
0	2746	870.979405568261	3
0	2747	871.402196319597	2
0	2752	871.567708683715	1
0	2760	873.912735126422	0
0	2783	876.218319331683	1
0	2785	880.93489770745	2
0	2787	884.151248795428	3
0	2789	887.936470491276	4
0	2792	892.399418638325	3
0	2798	892.905129783294	4
0	2801	894.465899595466	5
0	2803	895.775279036725	6
0	2805	897.218680668243	5
0	2811	898.950239314925	4
0	2817	899.968901355894	3
0	2825	905.721708896982	2
0	2830	906.250159957941	1
0	2838	907.527424536921	2
0	2840	907.582704911893	3
0	2843	908.380446930128	2
0	2856	911.862079484775	3
0	2859	912.549079915381	2
0	2868	920.19757337648	1
0	2874	920.712017075775	2
0	2875	921.089557934832	1
0	2881	921.108041771703	2
0	2891	924.178345018872	1
0	2896	924.396388677984	0
0	2907	924.650578409565	1
0	2911	925.986569167079	2
0	2914	926.674323039111	3
0	2915	927.117890931758	2
0	2920	927.56441372888	1
0	2927	928.90986148809	0
0	2942	932.486587262752	1
0	2943	932.989175974945	0
0	2982	945.081371094059	1
0	2983	945.247763979919	0
0	2992	945.434703406631	1
0	2993	945.47783182818	0
0	3006	947.732138403641	1
0	3009	953.843991589958	0
0	3054	973.56123271181	1
0	3057	973.985928926308	0
0	3067	976.15668154317	1
0	3070	976.492882923666	0
0	3099	984.704243713367	1
0	3100	988.178444757261	0
0	3114	992.031155425657	1
0	3116	992.383459095889	0
0	3143	996.317658000456	1
0	3148	1000.70362532969	0
0	3162	1004.758803077842	1
0	3166	1005.478048131894	0
0	3194	1014.927850967381	1
0	3195	1017.313505158066	0
0	3221	1034.516316136673	1
0	3225	1036.780161103908	2
0	3231	1038.597372384972	3
0	3232	1038.732739429958	2
0	3238	1039.73246088744	3
0	3241	1040.982197690522	4
0	3242	1042.171853502072	3
0	3251	1048.503689272395	2
0	3257	1048.907031560428	3
0	3259	1051.264973753568	4
0	3267	1054.896325863944	3
0	3272	1055.408067504633	2
0	3278	1055.936184372701	3
0	3282	1056.489163630024	4
0	3284	1058.677062341715	3
0	3290	1059.396662651266	4
0	3291	1059.734809053366	3
0	3297	1060.083493381352	4
0	3300	1061.108960838876	3
0	3306	1061.660621500352	2
0	3319	1064.723257397224	3
0	3323	1065.288477968449	4
0	3325	1065.964883936892	5
0	3326	1066.142651240444	4
0	3333	1068.340971000394	5
0	3335	1069.994756110846	6
0	3336	1071.342754689737	5
0	3341	1071.93618570202	4
0	3354	1075.437859383386	5
0	3358	1076.166717553281	6
0	3359	1076.183056463603	5
0	3365	1077.494920977104	4
0	3373	1079.500995681974	3
0	3382	1083.815620887367	2
0	3388	1084.535377648785	3
0	3391	1085.656466960752	4
0	3392	1089.701830380806	3
0	3397	1090.186130627841	2
0	3403	1090.268972917402	3
0	3405	1091.670101803604	2
0	3411	1091.889084393664	3
0	3412	1093.23010395637	2
0	3416	1095.24711555435	3
0	3418	1095.376740243059	4
0	3427	1101.819643570281	5
0	3429	1102.628834118935	6
0	3431	1102.683564021471	7
0	3432	1103.064884551944	6
0	3437	1103.074399656973	5
0	3443	1103.464108459347	4
0	3452	1104.154776732231	5
0	3453	1104.39502872528	4
0	3458	1104.486135803863	3
0	3463	1104.522122660724	2
0	3470	1108.582306727337	1
0	3475	1109.876643592837	0
0	3510	1120.372482024632	1
0	3512	1120.825226031011	2
0	3513	1122.601842070096	1
0	3520	1126.00983216085	0
0	3546	1133.985341649916	1
0	3547	1136.638261659299	0
0	3556	1139.12454511639	1
0	3559	1142.180830283717	2
0	3560	1142.477310457975	1
0	3565	1142.745417617702	0
0	3573	1143.782810458736	1
0	3575	1144.856079659139	0
0	3581	1145.029899159008	1
0	3586	1148.611004877964	2
0	3588	1152.140645486733	3
0	3589	1152.40027194174	2
0	3594	1152.707051534166	1
0	3602	1153.402010929519	2
0	3604	1153.755681293412	3
0	3606	1155.618122090168	4
0	3608	1157.07363724897	5
0	3610	1159.708604588782	6
0	3611	1160.614569110352	5
0	3616	1160.913135490117	4
0	3622	1161.802150107971	3
0	3629	1163.276404667717	4
0	3634	1164.875152326092	3
0	3640	1170.189148171851	2
0	3645	1173.103439952469	1
0	3650	1173.781010808178	0
0	3683	1179.112307488921	1
0	3684	1179.308182053447	0
0	3697	1185.405096145789	1
0	3700	1188.527686085699	0
0	3714	1193.47694229945	1
0	3718	1196.262576996419	2
0	3720	1197.58913977198	1
0	3725	1198.20251480905	0
0	3731	1198.336462967266	1
0	3733	1200.313989788392	0
0	3750	1202.429791450801	1
0	3752	1203.419184673961	2
0	3754	1204.891500398891	3
0	3758	1208.696975156406	4
0	3762	1212.333166084698	5
0	3764	1212.433518332533	6
0	3765	1213.526862874782	5
0	3770	1213.787803655579	4
0	3776	1218.610428083129	3
0	3781	1219.240739223565	2
0	3786	1219.310112100443	1
0	3793	1222.719956406121	2
0	3798	1226.230272806889	1
0	3805	1230.010169208372	0
0	3811	1230.913350201717	1
0	3813	1233.334314125388	0
0	3829	1236.816915454761	1
0	3833	1238.931425323431	2
0	3836	1241.16061188631	3
0	3837	1241.755311663681	2
0	3842	1242.16374244059	1
0	3850	1244.621320641854	2
0	3852	1246.270709076262	3
0	3855	1247.383560276949	4
0	3857	1248.472196320885	5
0	3858	1248.675404902504	4
0	3864	1250.282609820247	5
0	3866	1250.720695582816	6
0	3868	1251.512113605319	7
0	3870	1253.387514090818	6
0	3878	1259.440767821095	5
0	3883	1259.654685649171	4
0	3889	1260.44618630022	3
0	3894	1260.478346899506	2
0	3899	1261.73447397486	1
0	3910	1269.155679371682	0
0	3914	1269.26174965626	1
0	3916	1271.269354112776	2
0	3924	1275.112131834734	1
0	3929	1275.890837327754	0
0	3933	1276.376863021501	1
0	3938	1279.508541470207	0
0	3971	1285.04503423495	1
0	3973	1285.184212251169	2
0	3976	1285.867119983945	1
0	3984	1287.841309009432	2
0	3989	1289.114606297452	3
0	3990	1289.369061447928	2
0	3998	1291.738577656023	1
0	4007	1299.188247623743	0
0	4013	1299.688255690364	1
0	4016	1300.673187644192	2
0	4017	1301.111241990167	1
0	4026	1303.264863749131	0
0	4032	1303.502600910786	1
0	4034	1304.042062575936	2
0	4035	1304.917826653652	1
0	4044	1310.625972928884	0
0	4056	1316.262817872386	1
0	4057	1316.282875935197	0
0	4065	1317.167551830333	1
0	4068	1319.82777521645	2
0	4069	1320.474187783952	1
0	4077	1325.981931991957	2
0	4079	1326.08086124803	3
0	4080	1328.049695167383	2
0	4087	1328.623345349269	3
0	4088	1328.952840511997	2
0	4096	1329.40132963199	1
0	4102	1330.990141568837	0
0	4108	1331.075390944605	1
0	4112	1333.091805873783	0
0	4129	1335.05128489569	1
0	4130	1335.700753251651	0
0	4175	1349.059280905999	1
0	4176	1351.522963742936	0
0	4182	1351.921024312407	1
0	4184	1353.138955202829	0
0	4209	1361.372247615793	1
0	4210	1364.98786285199	0
0	4223	1369.081536142534	1
0	4230	1374.649513333912	2
0	4231	1375.739069247569	1
0	4237	1376.725667907714	2
0	4242	1383.517318980226	3
0	4243	1384.84347246379	2
0	4250	1386.988307595177	3
0	4252	1387.481664325761	4
0	4254	1387.827431263187	5
0	4255	1389.004713282132	4
0	4265	1392.75322306851	5
0	4266	1393.325750660258	4
0	4275	1395.381696050776	5
0	4281	1399.427050543517	6
0	4283	1399.633491518843	7
0	4284	1400.240220689073	6
0	4289	1400.285931097161	5
0	4296	1401.506206497041	6
0	4298	1401.76199291177	7
0	4301	1404.978465990517	6
0	4307	1405.644218211518	7
0	4308	1405.789495563061	6
0	4314	1407.814859497203	7
0	4320	1409.239971486501	8
0	4322	1410.17621070067	9
0	4327	1414.247988837037	8
0	4335	1416.736987650181	7
0	4341	1417.673794917981	8
0	4342	1418.853708102784	7
0	4348	1419.979173832782	8
0	4350	1422.577108645674	9
0	4351	1423.452969664747	8
0	4357	1425.737973137412	7
0	4364	1426.76262633977	8
0	4368	1430.880367299602	9
0	4369	1431.921581676346	8
0	4375	1432.664926304985	7
0	4382	1432.953252635557	8
0	4383	1433.155067162894	7
0	4388	1434.174415298081	6
0	4394	1436.032525252433	5
0	4401	1439.420636452314	4
0	4408	1442.765440361673	5
0	4410	1444.110901361133	6
0	4411	1444.296655252521	5
0	4417	1446.262017924072	4
0	4423	1446.953955583524	5
0	4424	1447.035908571734	4
0	4428	1447.392247911374	5
0	4432	1447.774541037432	6
0	4438	1451.383820111588	5
0	4444	1452.911889721638	6
0	4445	1453.339292850735	5
0	4450	1453.458002380725	4
0	4456	1454.824577147415	3
0	4461	1456.363362410653	2
0	4468	1460.956292641426	1
0	4477	1463.206874026601	0
0	4501	1467.367334180095	1
0	4503	1470.205548078573	2
0	4505	1471.083244916844	3
0	4506	1471.246150418142	2
0	4514	1472.621457277769	1
0	4519	1472.713394390849	0
0	4542	1479.648518272742	1
0	4545	1482.159638027571	0
0	4553	1483.811281139607	1
0	4554	1485.800489677899	0
0	4577	1490.657422359381	1
0	4581	1491.698700712375	2
0	4582	1494.02210761557	1
0	4588	1495.369968069751	0
0	4595	1496.832185034339	1
0	4596	1497.505956196242	0
0	4631	1505.469530328677	1
0	4635	1510.225336927616	2
0	4637	1511.597021548478	3
0	4638	1511.857526822111	2
0	4643	1512.012704293276	1
0	4650	1513.929923052095	0
0	4664	1518.647036695422	1
0	4667	1521.748193783342	0
0	4699	1535.363754638067	1
0	4703	1536.58724913981	2
0	4706	1536.930161178385	1
0	4711	1537.774781761091	0
0	4721	1539.631917172609	1
0	4725	1540.867083041395	2
0	4727	1541.047354447611	3
0	4728	1541.443270716651	2
0	4733	1541.463743983688	1
0	4738	1541.751741510833	0
0	4754	1545.656725881451	1
0	4755	1547.668710787365	0
0	4761	1550.456473221298	1
0	4764	1552.459107750283	0
0	4778	1556.780748059288	1
0	4782	1560.536011277316	0
0	4793	1562.80035400957	1
0	4795	1563.872548380143	2
0	4797	1563.991625233784	3
0	4800	1565.147601295246	2
0	4809	1568.368309838847	3
0	4811	1568.806254058784	2
0	4817	1571.402378406138	1
0	4824	1573.097212138114	2
0	4827	1573.339806665331	3
0	4830	1575.374337729999	4
0	4831	1576.044965452609	3
0	4839	1577.985228404691	2
0	4847	1581.179785143684	3
0	4849	1583.056667780839	4
0	4850	1586.652833196981	3
0	4855	1587.074937668611	2
0	4860	1588.961721702374	1
0	4866	1591.182300514271	0
0	4872	1594.254524925237	1
0	4875	1595.191581834716	0
0	4890	1598.593795294284	1
0	4892	1599.492837063078	2
0	4895	1599.890325362767	3
0	4896	1599.974536547256	2
0	4902	1601.724590359121	3
0	4904	1603.617403614951	2
0	4909	1603.843963826214	1
0	4914	1605.669137318885	0
0	4920	1606.626506552516	1
0	4922	1607.174445169389	2
0	4923	1607.463596401026	1
0	4934	1613.284863519846	2
0	4935	1613.726775880788	1
0	4942	1617.356137546436	0
0	4950	1619.565706735089	1
0	4951	1619.593166796035	0
0	4982	1631.472852559354	1
0	4984	1632.284940469976	2
0	4987	1634.359477395358	1
0	4992	1634.398854957603	0
0	5002	1636.357406989025	1
0	5009	1640.484353521305	0
0	5029	1645.45780375553	1
0	5032	1647.7363477209	0
0	5043	1652.872666901185	1
0	5045	1653.083387535293	2
0	5047	1655.520764644615	1
0	5053	1658.272579296269	0
0	5065	1660.333895420191	1
0	5067	1660.513626045963	2
0	5071	1661.222551001181	3
0	5072	1661.339747472761	2
0	5077	1661.842279489907	1
0	5087	1665.957365054913	2
0	5090	1668.106184141104	1
0	5096	1670.385472208956	0
0	5102	1671.174144956037	1
0	5105	1672.640700743687	0
0	5116	1673.528214296449	1
0	5118	1674.587867778197	2
0	5122	1675.855625255871	1
0	5128	1677.659353980082	0
0	5158	1689.418145268393	1
0	5159	1693.479924813052	0
0	5170	1698.437069189482	1
0	5174	1698.948435658743	2
0	5176	1699.582651780537	3
0	5177	1699.768258517544	2
0	5182	1702.779321047024	1
0	5189	1704.131717966788	0
0	5195	1705.154025066337	1
0	5196	1705.424176992936	0
0	5212	1716.739850094906	1
0	5214	1717.080455201733	2
0	5218	1719.432893066766	1
0	5223	1719.532059501953	0
0	5239	1722.684652248545	1
0	5244	1723.324233111867	0
0	5253	1724.022871935055	1
0	5254	1724.346953144927	0
0	5266	1727.857244084812	1
0	5269	1729.846883520918	0
0	5292	1738.654703896664	1
0	5293	1741.078005157275	0
0	5326	1750.753157515484	1
0	5328	1751.001552462935	0
0	5347	1753.798514205045	1
0	5349	1754.371318907927	2
0	5350	1754.481839348651	1
0	5356	1754.972275066386	2
0	5358	1756.030587626185	1
0	5364	1758.748929678196	0
0	5396	1763.337555310439	1
0	5403	1772.159562163729	0
0	5430	1781.112071922814	1
0	5434	1783.203524889876	2
0	5435	1785.775776836622	1
0	5442	1786.159771035976	2
0	5444	1788.612546685145	1
0	5450	1790.638120484079	0
0	5464	1796.173748641703	1
0	5466	1799.75310470764	0
0	5497	1818.924051514798	1
0	5498	1821.176911647914	0
0	5506	1822.301891469522	1
0	5507	1823.64740315079	0
0	5524	1830.93320079698	1
0	5528	1834.073369881552	2
0	5532	1838.249724080934	3
0	5534	1841.008009797388	4
0	5538	1846.583524699508	5
0	5540	1847.890423353614	6
0	5544	1848.110228929386	7
0	5549	1852.379956898996	6
0	5557	1854.345916299901	7
0	5558	1854.936102561995	6
0	5567	1856.674768799243	7
0	5570	1860.007392277625	8
0	5574	1864.926544227525	9
0	5575	1865.289423776153	8
0	5583	1866.35277359053	7
0	5589	1866.732928523532	8
0	5591	1867.033552167491	9
0	5594	1868.335955742707	10
0	5595	1868.932341418117	9
0	5600	1869.436452811321	8
0	5605	1869.672596470921	7
0	5611	1870.501292378634	6
0	5618	1872.235798022339	7
0	5619	1872.326954777545	6
0	5630	1876.505884461635	5
0	5641	1881.720893195521	6
0	5642	1882.637184938577	5
0	5650	1884.186984975793	4
0	5656	1884.434420285636	5
0	5657	1884.910348265803	4
0	5666	1887.698559521533	3
0	5672	1888.48411225579	4
0	5673	1889.17172322245	3
0	5678	1889.921870481537	2
0	5683	1890.396688685564	1
0	5692	1893.234059453143	2
0	5695	1893.505066749213	3
0	5696	1893.947776858241	2
0	5701	1893.999884312106	1
0	5708	1895.001648297016	2
0	5710	1897.486962341529	3
0	5711	1899.909606773764	2
0	5717	1900.681042202697	1
0	5726	1903.278071016725	0
0	5732	1903.796864304599	1
0	5735	1905.141233174734	0
0	5747	1906.845625029833	1
0	5749	1907.353729209379	2
0	5750	1907.360698553458	1
0	5756	1908.275812942897	0
0	5763	1908.449500861445	1
0	5766	1910.328796521603	2
0	5768	1911.406123813484	3
0	5774	1915.680678864247	4
0	5775	1916.465961180859	3
0	5784	1919.900877495008	4
0	5785	1920.465002386882	3
0	5790	1920.952882212507	2
0	5795	1922.224081207748	1
0	5802	1922.651232290838	2
0	5804	1923.074422992016	3
0	5806	1923.701696943986	4
0	5808	1924.344940876596	5
0	5811	1927.070315322871	6
0	5813	1927.965322694919	7
0	5814	1929.005257025838	6
0	5820	1929.063363658482	7
0	5823	1931.029444404806	6
0	5829	1931.752317895643	5
0	5835	1934.506724797156	4
0	5840	1935.986025133333	3
0	5849	1939.116304384889	2
0	5855	1939.29728580207	3
0	5862	1942.873875618009	4
0	5864	1943.695055464011	5
0	5865	1945.932462004406	4
0	5870	1946.356016422694	3
0	5875	1948.255672735479	2
0	5881	1949.932117355839	1
0	5888	1950.96890075408	2
0	5889	1951.25344066398	1
0	5896	1953.003255371551	0
0	5927	1961.487548392088	1
0	5928	1964.285046986239	0
0	5963	1980.419038385832	1
0	5966	1982.830584824693	0
0	5973	1985.585849617242	1
0	5975	1988.334115905905	2
0	5976	1988.5316594363	1
0	5985	1993.207829721458	2
0	5986	1995.285951579558	1
0	5992	1998.701038066649	0
0	6018	2007.033037084234	1
0	6019	2008.870974273017	0
0	6027	2011.396745946776	1
0	6029	2012.237426673977	2
0	6030	2014.23156241107	1
0	6036	2015.097005001072	0
0	6045	2017.930194970898	1
0	6046	2018.437043177359	0
0	6052	2019.359910437569	1
0	6054	2019.850142904221	0
0	6071	2024.184644046585	1
0	6072	2024.212725851244	0
0	6079	2024.629033788382	1
0	6083	2026.643297811553	0
0	6116	2045.588683919315	1
0	6121	2047.110054647717	0
0	6133	2049.890176974075	1
0	6134	2053.702445244355	0
0	6149	2058.785960015201	1
0	6150	2059.616026982033	0
0	6170	2066.506391644715	1
0	6173	2067.343468183283	0
0	6187	2070.289123658907	1
0	6191	2070.770520233613	2
0	6194	2073.00566162584	3
0	6195	2074.509710620118	2
0	6200	2075.381713919133	1
0	6210	2078.787741204996	0
0	6227	2081.467339860221	1
0	6230	2086.096245471758	0
0	6242	2088.375373364893	1
0	6243	2088.857182023235	0
0	6258	2091.002201507246	1
0	6262	2092.225727922811	2
0	6263	2092.351498747602	1
0	6272	2094.025851382643	2
0	6274	2095.139257831739	3
0	6275	2095.662641429446	2
0	6284	2096.368590857676	3
0	6286	2096.369684702165	4
0	6290	2098.849849558164	3
0	6297	2100.708509960117	2
0	6303	2101.280545984147	3
0	6307	2104.784250035955	2
0	6313	2106.607081446794	1
0	6319	2107.348193737892	2
0	6322	2107.806167706291	3
0	6324	2108.783612310838	2
0	6330	2110.695335454964	1
0	6336	2110.78796116321	2
0	6339	2111.207487831241	1
0	6344	2111.288656611629	0
0	6379	2121.408126396495	1
0	6384	2123.737464137364	2
0	6386	2123.910402578343	3
0	6388	2126.952329745014	4
0	6389	2128.037516805356	3
0	6394	2128.27572401474	2
0	6400	2129.140304300424	3
0	6402	2129.549855210374	4
0	6407	2134.339006719113	3
0	6413	2134.532157906108	2
0	6421	2137.926733318261	1
0	6429	2139.624931510867	0
0	6435	2139.745585483467	1
0	6437	2140.851866885957	0
0	6456	2143.609593212731	1
0	6457	2145.463940982854	0
0	6469	2146.11250021385	1
0	6471	2148.320894298442	0
0	6482	2149.051614894506	1
0	6484	2149.20542656256	2
0	6487	2152.098951183322	1
0	6492	2154.232133657194	0
0	6501	2157.607498173495	1
0	6502	2157.963440208581	0
0	6514	2159.802303068792	1
0	6516	2162.419567490098	0
0	6522	2162.44179941195	1
0	6523	2163.557538054214	0
0	6527	2163.975303012253	1
0	6533	2166.332399808629	2
0	6534	2166.604428312224	1
0	6543	2167.984561934426	0
0	6547	2168.314314793669	1
0	6555	2169.893484994547	2
0	6557	2170.034914112721	3
0	6558	2170.281599620397	2
0	6563	2171.799543908373	1
0	6569	2172.28369797956	2
0	6572	2172.493939013178	1
0	6577	2174.014886052855	0
0	6583	2176.144808566584	1
0	6589	2177.813833423362	2
0	6591	2178.23628862772	3
0	6594	2178.492273889412	2
0	6602	2180.487101028498	3
0	6603	2181.353790112377	2
0	6610	2183.256453241405	1
0	6618	2184.228778813703	2
0	6620	2185.328686457927	3
0	6626	2187.74723786955	4
0	6627	2187.803422776626	3
0	6634	2188.867451345227	2
0	6646	2190.99706338282	3
0	6647	2193.370177457861	2
0	6653	2195.048547502543	3
0	6655	2196.830696123944	4
0	6657	2196.979297738311	5
0	6658	2197.582376714267	4
0	6664	2197.778804607963	5
0	6671	2202.229122058713	4
0	6679	2203.024478626102	3
0	6687	2204.861486077601	4
0	6688	2205.237877957314	3
0	6693	2205.371215518603	2
0	6700	2206.852515789256	3
0	6701	2207.160181410221	2
0	6707	2208.153630708247	3
0	6711	2209.671460608136	4
0	6712	2209.87740872925	3
0	6717	2210.254927070987	2
0	6722	2210.741017100258	1
0	6727	2210.892152105795	0
0	6764	2222.610360758168	1
0	6768	2227.059007870602	2
0	6777	2236.007007327572	1
0	6783	2236.742969675248	0
0	6802	2242.590288698334	1
0	6803	2242.670154719931	0
0	6816	2244.75016140364	1
0	6818	2245.061961590438	2
0	6821	2246.099969174734	3
0	6822	2247.390894385699	2
0	6828	2247.639106966065	3
0	6830	2248.485582141604	4
0	6831	2248.85725258304	3
0	6836	2249.067909418979	2
0	6842	2249.195366015925	3
0	6844	2249.28750216201	4
0	6845	2250.742272675777	3
0	6849	2250.92309963479	4
0	6854	2253.123284960585	3
0	6860	2254.59298310409	4
0	6862	2256.212817918124	5
0	6864	2259.165362881509	6
0	6871	2261.467555023157	5
0	6880	2265.211530053021	6
0	6882	2265.629075135477	7
0	6885	2270.773556989241	6
0	6890	2271.186513235996	5
0	6895	2271.930252915584	4
0	6901	2273.784445020037	3
0	6909	2274.420048968969	4
0	6911	2275.172342155159	5
0	6912	2275.287893953171	4
0	6922	2276.86131705882	3
0	6928	2276.916747654187	4
0	6929	2277.89864159191	3
0	6935	2277.923741574072	4
0	6946	2284.88220409478	5
0	6947	2285.022354048183	4
0	6952	2287.900718580133	3
0	6957	2288.10404893117	2
0	6965	2289.58825657038	1
0	6970	2290.904712917957	0
0	6983	2294.264506863302	1
0	6984	2295.272940074955	0
0	6995	2296.953751822517	1
0	6996	2297.037779945644	0
0	7004	2299.125691647007	1
0	7006	2299.381802788568	2
0	7007	2300.54840598845	1
0	7014	2302.37761053473	0
0	7021	2302.898558171897	1
0	7023	2304.679379985159	2
0	7024	2304.819892142559	1
0	7037	2311.264903062812	0
0	7060	2320.343252640293	1
0	7061	2322.481794516875	0
0	7089	2333.803062966538	1
0	7092	2337.314610179137	2
0	7093	2337.364519425304	1
0	7103	2340.011997450277	0
0	7114	2341.029151646621	1
0	7115	2341.215928817943	0
0	7124	2341.84306844677	1
0	7127	2342.969448516984	0
0	7133	2343.355896071318	1
0	7135	2343.628016931849	2
0	7136	2343.654070349798	1
0	7144	2345.980575080082	2
0	7145	2346.695825083615	1
0	7154	2351.601884885492	2
0	7156	2352.037193976985	3
0	7157	2352.569141804283	2
0	7164	2353.434376917108	3
0	7165	2353.791077055496	2
0	7172	2354.094375679385	1
0	7177	2354.208439211834	0
0	7189	2356.472290283744	1
0	7191	2357.643586129001	0
0	7197	2358.353407139346	1
0	7202	2362.290487287106	0
0	7214	2366.700325795046	1
0	7216	2369.105744680496	2
0	7223	2371.049932674667	3
0	7224	2371.942220629781	2
0	7230	2372.884973744525	1
0	7236	2373.483481944273	2
0	7242	2376.449569372394	1
0	7248	2378.166606186721	0
0	7258	2380.76538551315	1
0	7260	2382.772311052207	0
0	7278	2386.448589687896	1
0	7279	2386.77531967377	0
0	7285	2387.68794454553	1
0	7289	2388.186921964905	0
0	7305	2392.737784831661	1
0	7307	2393.917723900326	2
0	7315	2395.875980326589	3
0	7317	2396.993316908721	4
0	7318	2397.143601562904	3
0	7326	2398.968982324427	4
0	7329	2399.190433073074	3
0	7334	2399.935593057194	2
0	7343	2401.36502237686	3
0	7345	2402.311010960374	4
0	7346	2403.09804957138	3
0	7351	2403.599765961097	2
0	7357	2404.36744572745	1
0	7363	2409.663074457032	2
0	7368	2412.257650687582	3
0	7369	2412.297442187342	2
0	7377	2415.349850350205	1
0	7383	2419.839685226325	0
0	7413	2427.074744190582	1
0	7414	2428.176947807069	0
0	7432	2433.699031450022	1
0	7437	2436.427256789433	0
0	7465	2446.996496230376	1
0	7469	2449.799784428806	2
0	7470	2451.779319070033	1
0	7477	2452.674292444567	2
0	7482	2457.061313115503	1
0	7489	2459.351741631863	0
0	7511	2466.160604476417	1
0	7513	2472.706357938871	2
0	7515	2472.887021959104	3
0	7517	2473.517613864131	4
0	7518	2473.623588344252	3
0	7525	2475.538466077181	2
0	7533	2477.705317460648	3
0	7534	2477.909859513393	2
0	7540	2478.136747267037	3
0	7544	2479.896984534012	2
0	7551	2482.718663749513	1
0	7558	2484.702144614946	2
0	7560	2485.696050264842	3
0	7563	2487.652407526194	4
0	7565	2487.69434802598	5
0	7566	2487.824130551965	4
0	7571	2487.968392197948	3
0	7580	2490.002678916361	4
0	7582	2492.539264073529	5
0	7583	2493.005762412441	4
0	7589	2493.282466787618	5
0	7591	2493.48215213708	6
0	7593	2496.51858524123	5
0	7601	2499.342263844396	6
0	7602	2499.582754427742	5
0	7607	2500.936405178599	4
0	7613	2502.204695468946	3
0	7618	2502.376374932098	2
0	7623	2506.501423692429	1
0	7632	2508.19592113388	0
0	7639	2511.483955817758	1
0	7645	2515.039324867388	0
0	7651	2515.611433092459	1
0	7655	2516.435085209046	2
0	7656	2516.473195946986	1
0	7667	2521.519910556685	2
0	7671	2524.542158547747	3
0	7672	2524.998193914053	2
0	7678	2525.275432582054	3
0	7679	2526.645643246524	2
0	7684	2530.004511523401	1
0	7691	2532.300449818821	2
0	7693	2534.518134071182	3
0	7694	2535.694584327207	2
0	7700	2537.41389210198	1
0	7715	2539.418962965938	2
0	7717	2539.436974901877	3
0	7720	2539.736518398501	2
0	7727	2541.732413580525	3
0	7728	2546.710529606753	2
0	7733	2547.049472791327	1
0	7741	2548.239952875616	2
0	7745	2548.531916852477	3
0	7747	2552.13726230924	4
0	7749	2553.564936994117	5
0	7750	2554.354335826559	4
0	7756	2554.87386518157	5
0	7758	2556.046978934436	4
0	7763	2557.509657346922	3
0	7769	2558.381817829679	4
0	7771	2558.523710033535	5
0	7772	2559.274690796444	4
0	7778	2559.549275161227	5
0	7782	2567.759450848009	6
0	7784	2569.935521966669	7
0	7785	2572.035498200163	6
0	7789	2572.904454701215	7
0	7793	2573.38439321718	8
0	7794	2573.958643756421	7
0	7798	2574.848195092074	8
0	7800	2574.964473488747	9
0	7805	2575.530777594877	8
0	7813	2577.649196520239	9
0	7814	2577.745226687698	8
0	7819	2577.793917180076	7
0	7833	2581.358766042807	6
0	7843	2583.635436882431	5
0	7850	2585.025568129493	6
0	7853	2587.748160736698	5
0	7860	2591.586973152409	4
0	7865	2591.69103090723	3
0	7876	2598.487855723694	4
0	7879	2599.349073729786	3
0	7884	2599.63258252041	2
0	7889	2602.531524103571	1
0	7894	2603.085430604337	0
0	7901	2607.593529295575	1
0	7903	2608.156617256974	2
0	7904	2608.617380865333	1
0	7909	2608.972127136872	0
0	7916	2611.224018755418	1
0	7918	2611.425029354649	2
0	7920	2611.640488770661	1
0	7927	2612.625767671985	0
0	7948	2614.94914939929	1
0	7953	2621.589172210738	0
0	7965	2624.274418888503	1
0	7967	2627.841227198613	2
0	7968	2633.405219869798	1
0	7976	2635.176733016048	0
0	7996	2639.690063287208	1
0	8000	2641.782999927656	2
0	8001	2641.919272996155	1
0	8006	2642.102105181826	0
0	8029	2648.366876767082	1
0	8034	2650.372889028657	0
0	8066	2671.935850222861	1
0	8069	2674.979000805324	0
0	8079	2677.919159119131	1
0	8080	2677.946051461864	0
0	8087	2682.273126901095	1
0	8090	2684.556640955421	0
0	8111	2693.761765168992	1
0	8115	2698.628573785673	2
0	8116	2699.251382398766	1
0	8123	2700.376154634915	2
0	8124	2703.601260750622	1
0	8130	2704.902724587775	0
0	8148	2706.619129041518	1
0	8150	2707.275029182464	0
0	8157	2707.350504234909	1
0	8159	2708.811309922697	2
0	8161	2708.934532316784	3
0	8166	2711.830747841813	2
0	8175	2712.771038801129	3
0	8176	2712.993630234488	2
0	8181	2713.511378252176	1
0	8188	2715.119082510938	2
0	8190	2716.19545387641	3
0	8193	2719.726194452851	2
0	8199	2720.605080636091	3
0	8201	2721.964742067613	4
0	8204	2723.931828275953	5
0	8205	2725.606030932696	4
0	8210	2725.904798759725	3
0	8217	2726.912807307558	4
0	8218	2727.975608593871	3
0	8224	2727.995556196514	4
0	8227	2729.654153288045	3
0	8234	2730.038673069164	2
0	8239	2730.439329818358	1
0	8246	2733.604360218696	2
0	8252	2736.859381192158	1
0	8257	2737.581877526696	0
0	8263	2738.711062818179	1
0	8265	2740.61077379478	2
0	8267	2741.738476928254	3
0	8268	2742.035727809588	2
0	8272	2742.634572728457	3
0	8276	2745.049289994026	4
0	8277	2745.189068938059	3
0	8283	2747.693705789939	4
0	8284	2748.992350228379	3
0	8292	2749.707505823229	4
0	8297	2750.585168235693	3
0	8303	2750.608165626564	4
0	8304	2751.457108566539	3
0	8309	2751.572791765713	2
0	8313	2752.556334194098	3
0	8317	2753.434134303928	4
0	8323	2754.586136359802	3
0	8330	2755.979163554717	4
0	8332	2756.760521083406	5
0	8340	2761.521668693503	6
0	8341	2762.254747858841	5
0	8348	2763.101584072646	4
0	8354	2764.388773363589	5
0	8355	2764.407559040415	4
0	8361	2766.313019804605	5
0	8362	2767.490120875979	4
0	8369	2769.643694576212	3
0	8376	2772.620464538451	2
0	8383	2778.442478227178	1
0	8391	2779.45340845435	0
0	8402	2780.273733438658	1
0	8404	2780.970644824836	2
0	8405	2782.241237072684	1
0	8409	2783.215218481226	2
0	8413	2784.724257420664	3
0	8416	2786.697384183865	2
0	8426	2789.58970412539	1
0	8432	2792.837963969154	2
0	8436	2795.012015114401	3
0	8438	2795.06418394312	4
0	8439	2796.222192323253	3
0	8447	2800.467203213537	4
0	8454	2802.565397437124	3
0	8459	2803.867791152634	2
0	8465	2804.615046627012	3
0	8466	2805.695962112273	2
0	8480	2810.122607734594	1
0	8486	2810.338082159452	0
0	8493	2810.689580198111	1
0	8496	2813.922399557766	0
0	8502	2814.49339855836	1
0	8503	2814.605173129572	0
0	8516	2815.737399877954	1
0	8519	2818.169721095665	0
0	8527	2822.314868519529	1
0	8528	2822.793042990137	0
0	8544	2826.575897252551	1
0	8546	2829.395072807458	0
0	8554	2830.007449818541	1
0	8555	2830.040685143755	0
0	8561	2830.314345376492	1
0	8567	2832.297118742756	0
0	8579	2834.690594411553	1
0	8580	2836.150270272895	0
0	8588	2837.178688271532	1
0	8593	2841.704146141582	2
0	8594	2844.167214207601	1
0	8600	2847.056143334003	2
0	8602	2847.593923903268	3
0	8604	2848.105510748271	4
0	8606	2852.128527143551	5
0	8608	2854.132775931897	4
0	8614	2854.557827891176	5
0	8615	2854.650168117529	4
0	8622	2855.675487539029	3
0	8627	2855.724178966723	2
0	8637	2858.575017307856	3
0	8641	2862.659325523275	4
0	8643	2863.474390939316	5
0	8644	2863.59411202447	4
0	8650	2864.101959539422	5
0	8652	2866.031696811223	4
0	8658	2867.896759488936	5
0	8663	2869.212144661552	6
0	8665	2871.055914582422	7
0	8667	2872.102359743146	8
0	8669	2872.432451946201	9
0	8670	2875.649445116171	8
0	8677	2876.974226620018	9
0	8678	2877.44707859282	8
0	8686	2881.585967330982	7
0	8691	2886.547139605789	6
0	8699	2890.083759391243	7
0	8700	2890.990447991862	6
0	8706	2892.005294390358	5
0	8711	2892.429128505317	4
0	8717	2892.552599182885	5
0	8718	2892.64293309448	4
0	8727	2895.887537796579	3
0	8735	2898.674776769633	4
0	8736	2901.603973291008	3
0	8743	2902.139843924061	4
0	8744	2904.481809115645	3
0	8750	2905.256180215228	4
0	8752	2906.746981094791	3
0	8760	2912.550486294644	2
0	8765	2913.344332872358	1
0	8772	2916.452528180017	0
0	8791	2923.184861291498	1
0	8792	2923.588766194451	0
0	8805	2925.701988289572	1
0	8813	2931.696385207852	2
0	8814	2934.354478323475	1
0	8820	2934.569374558624	2
0	8822	2937.999441965918	3
0	8826	2942.093809069775	2
0	8831	2942.159042294424	1
0	8838	2943.356025478038	0
0	8856	2951.952890871838	1
0	8857	2954.005702995611	0
0	8867	2954.499266971656	1
0	8869	2955.092231640211	2
0	8873	2956.558205951005	3
0	8875	2957.772099492698	4
0	8876	2959.531555662729	3
0	8882	2960.209315675195	4
0	8883	2963.637941708203	3
0	8889	2964.374471543115	2
0	8897	2965.886271341326	3
0	8899	2966.036515063126	4
0	8905	2969.877455795723	5
0	8906	2970.106239219081	4
0	8912	2970.571158820824	3
0	8917	2970.584523970768	2
0	8926	2972.332496078758	3
0	8927	2974.327577654102	2
0	8932	2975.148270219734	1
0	8937	2975.517135290821	0
0	8954	2976.998612434109	1
0	8956	2977.146095795591	2
0	8961	2977.752856254024	3
0	8964	2980.907046809199	4
0	8967	2981.577525169598	5
0	8968	2982.022061030958	4
0	8976	2983.164284663873	3
0	8983	2984.20267911006	4
0	8985	2986.657178326249	5
0	8987	2986.670464827785	6
0	8988	2986.73314565928	5
0	8998	2989.365953399096	6
0	9000	2991.640992813287	7
0	9002	2991.79636937413	8
0	9003	2992.341536053936	7
0	9008	2992.810476851364	6
0	9013	2993.41957817622	5
0	9021	2997.187789641469	6
0	9022	2998.479513310974	5
0	9027	2998.681438527306	4
0	9032	3002.035085978853	3
0	9036	3004.647855922843	4
0	9039	3006.607575017322	3
0	9045	3007.91115609247	4
0	9046	3008.708471251414	3
0	9052	3009.300603926517	2
0	9060	3009.899890237585	3
0	9062	3011.562499605708	2
0	9067	3011.828860470491	1
0	9075	3014.955385755174	0
0	9081	3015.185542348099	1
0	9082	3015.247566539939	0
0	9097	3017.745606531303	1
0	9099	3019.321820295827	0
0	9123	3022.974858962956	1
0	9125	3023.761479762534	2
0	9128	3028.116993056346	1
0	9134	3028.504417066636	2
0	9140	3030.714055368028	3
0	9141	3032.004022583471	2
0	9147	3032.703316376922	3
0	9149	3033.489139660513	2
0	9158	3037.048783080375	3
0	9159	3037.504668942847	2
0	9165	3037.650973301182	3
0	9167	3038.175247524009	2
0	9176	3040.06565190349	3
0	9178	3040.907760924708	4
0	9179	3042.757214213755	3
0	9185	3043.720570297797	2
0	9193	3046.113527051896	3
0	9195	3047.072396385249	2
0	9204	3049.190522240019	3
0	9206	3049.582032972488	4
0	9208	3054.191461501489	5
0	9215	3058.37597292852	4
0	9226	3063.668762715166	5
0	9227	3064.001577047689	4
0	9232	3064.369715983414	3
0	9237	3064.377396606336	2
0	9243	3064.975845030466	3
0	9244	3067.793589686479	2
0	9252	3069.689669243067	3
0	9254	3071.103216387844	4
0	9255	3071.174286659028	3
0	9260	3071.508795433564	2
0	9268	3073.558352164505	3
0	9273	3075.298505148965	2
0	9278	3077.032811228841	1
0	9283	3077.241638264894	0
0	9311	3085.251180711686	1
0	9312	3085.618481327579	0
0	9321	3086.537953422168	1
0	9322	3086.791169007337	0
0	9336	3092.487171487497	1
0	9337	3092.948657356491	0
0	9362	3106.248505892899	1
0	9363	3106.305817949538	0
0	9377	3109.084962900227	1
0	9378	3110.300194687405	0
0	9387	3111.508866043968	1
0	9389	3111.548420908948	2
0	9390	3112.547769042689	1
0	9395	3113.008740016821	0
0	9401	3113.633863617534	1
0	9403	3114.458151909872	0
0	9411	3116.260775339038	1
0	9412	3116.647387737444	0
0	9449	3127.618754660505	1
0	9452	3128.334400531867	0
0	9467	3134.160173471863	1
0	9468	3134.676756483945	0
0	9482	3138.411374540999	1
0	9484	3138.524395909286	2
0	9486	3138.599633728218	3
0	9487	3141.183854818545	2
0	9500	3146.079503244565	3
0	9503	3148.285772883157	2
0	9509	3152.03658634073	1
0	9516	3152.593770869822	2
0	9519	3154.737572462623	1
0	9526	3156.207820883104	0
0	9537	3158.610162516135	1
0	9539	3158.723857751753	2
0	9540	3159.712772061208	1
0	9545	3160.867044393265	0
0	9559	3169.266667616427	1
0	9561	3171.722442655018	2
0	9566	3174.8978853467	1
0	9571	3175.802390451794	0
0	9580	3179.19819347688	1
0	9585	3184.45404745897	0
0	9602	3190.069775531594	1
0	9603	3192.676973286483	0
0	9612	3196.097912419992	1
0	9614	3196.464378377651	2
0	9616	3199.411546433139	3
0	9618	3201.106043223239	4
0	9621	3203.242346432999	3
0	9628	3205.494250757987	2
0	9633	3205.916109715217	1
0	9638	3206.106334433203	0
0	9662	3208.720278788166	1
0	9663	3208.767707152886	0
0	9670	3208.962153380689	1
0	9674	3210.389127099077	0
0	9681	3211.541933131583	1
0	9684	3212.524776714604	2
0	9685	3212.953752487979	1
0	9691	3214.199226918032	0
0	9710	3216.940866312653	1
0	9712	3217.752161867779	2
0	9718	3219.126874461619	3
0	9722	3219.988978256212	4
0	9723	3220.187525588973	3
0	9730	3220.257729144752	4
0	9734	3223.411044940928	3
0	9740	3223.546441271259	4
0	9742	3223.639029074086	5
0	9744	3225.189895713976	6
0	9746	3226.042644409363	7
0	9748	3228.635329622786	6
0	9757	3230.147524965298	7
0	9758	3230.389144677337	6
0	9763	3230.828111297483	5
0	9769	3230.964354166862	6
0	9770	3230.972630803491	5
0	9777	3233.064343472424	4
0	9781	3233.520244674415	5
0	9786	3235.006659731425	6
0	9788	3236.858510355234	5
0	9793	3238.025248376813	4
0	9801	3242.00636054932	5
0	9812	3246.856238539015	4
0	9817	3248.773716130896	3
0	9824	3251.146222218746	2
0	9832	3252.951337009841	3
0	9834	3253.887718898841	4
0	9836	3253.911542588231	5
0	9838	3258.458231295456	4
0	9844	3259.36872576403	5
0	9845	3262.218931117594	4
0	9852	3265.535814699007	5
0	9857	3269.306781095269	4
0	9866	3273.792638255126	5
0	9867	3274.817010936453	4
0	9872	3275.189467409586	3
0	9880	3276.61582940144	2
0	9888	3280.055994721349	3
0	9889	3280.205776155584	2
0	9895	3283.905585663597	1
0	9902	3285.897926485582	2
0	9903	3286.884132919483	1
0	9908	3286.916679823421	0
0	9912	3287.064007048424	1
0	9916	3287.711110020963	2
0	9917	3288.37018886424	1
0	9921	3288.79070279808	2
0	9923	3289.230119837733	3
0	9927	3291.746203821339	4
0	9928	3292.323766347536	3
0	9932	3294.191742229139	4
0	9936	3297.988002949678	5
0	9938	3299.568669611879	6
0	9939	3299.848299260643	5
0	9945	3301.60905466013	6
0	9947	3303.654905695422	7
0	9954	3313.02995062044	6
0	9962	3314.585512652134	7
0	9963	3314.640394512215	6
0	9968	3315.000937310858	5
0	9973	3315.555593750209	4
0	9977	3315.857632782978	5
0	9981	3320.07608351526	6
0	9987	3324.203376199898	7
0	9989	3326.782994287847	6
0	9996	3327.073960103663	7
0	10001	3328.791815629923	6
0	10006	3328.979456417626	5
0	10011	3331.61920646496	4
0	10017	3331.673919432195	5
0	10020	3334.292149401384	4
0	10025	3334.432154212756	3
0	10038	3338.987491333442	4
0	10040	3342.713794143766	5
0	10041	3344.44696162699	4
0	10046	3344.481573372603	3
0	10053	3345.454950983404	2
0	10060	3346.60275711709	1
0	10066	3346.826790215459	2
0	10069	3352.898588053455	1
0	10074	3354.391023881873	0
0	10091	3362.305208474566	1
0	10093	3364.547812789563	2
0	10094	3364.585755618758	1
0	10100	3364.845710345199	2
0	10101	3365.695573466499	1
0	10106	3366.379705339627	0
0	10130	3372.067683266019	1
0	10131	3372.246172388379	0
0	10137	3372.493796998614	1
0	10139	3373.499478669446	2
0	10140	3374.695217791425	1
0	10146	3375.392015762988	2
0	10147	3376.052222923321	1
0	10151	3377.851789082443	2
0	10158	3380.319474658182	1
0	10167	3382.886595145936	0
0	10174	3387.822802107102	1
0	10175	3387.945905873854	0
0	10189	3389.989086468694	1
0	10191	3391.440344242416	2
0	10195	3392.605670651822	1
0	10202	3394.980817488924	0
0	10215	3396.629987800056	1
0	10220	3397.909162158395	0
0	10242	3405.890042135865	1
0	10243	3405.999476776177	0
0	10255	3408.712809502924	1
0	10256	3409.968530090243	0
0	10267	3411.645716406524	1
0	10269	3412.963903632062	0
0	10276	3413.565341111401	1
0	10277	3413.579025917558	0
0	10284	3416.248150642055	1
0	10285	3416.962590621583	0
0	10294	3419.489327707989	1
0	10299	3420.997391378493	0
0	10312	3426.07315659192	1
0	10321	3428.749609793737	2
0	10326	3432.913593842763	1
0	10331	3434.515823695625	0
0	10337	3435.650156370088	1
0	10339	3437.622848005206	2
0	10341	3437.838966638544	3
0	10342	3438.338086239406	2
0	10347	3439.469541499863	1
0	10356	3444.774571398235	0
0	10362	3445.926973202801	1
0	10363	3446.270274769618	0
0	10376	3450.181946822231	1
0	10377	3451.543230810971	0
0	10383	3452.242892108061	1
0	10385	3452.896056152449	2
0	10387	3454.653562014561	1
0	10393	3458.664635567616	0
0	10414	3466.074294049834	1
0	10416	3466.462648142894	2
0	10417	3466.547509029037	1
0	10422	3467.840603202099	0
0	10433	3471.239877036433	1
0	10435	3472.651488255259	2
0	10443	3479.184710429152	3
0	10444	3480.069683149656	2
0	10449	3481.58417915978	1
0	10455	3482.649095844723	0
0	10472	3489.28347007497	1
0	10474	3489.510433292501	2
0	10477	3491.324813126511	1
0	10483	3492.129915890668	0
0	10489	3492.576943859727	1
0	10495	3494.793373439829	2
0	10498	3500.345870513	1
0	10504	3501.961088602698	0
0	10521	3507.976820829487	1
0	10524	3509.204160739385	0
0	10530	3509.536275105951	1
0	10531	3511.657347924026	0
0	10537	3512.536132761693	1
0	10538	3513.507831422672	0
0	10551	3519.241917862591	1
0	10556	3521.901279797425	0
0	10563	3522.019889485234	1
0	10564	3522.121350727266	0
0	10577	3524.4478456515	1
0	10578	3525.720453956591	0
0	10590	3532.55667152812	1
0	10591	3533.035041811209	0
0	10600	3535.396004937814	1
0	10602	3537.90012227141	2
0	10606	3539.440468422772	3
0	10607	3539.848865691777	2
0	10618	3543.390023040013	3
0	10619	3543.892482701386	2
0	10626	3544.791989785205	1
0	10633	3545.232812495061	2
0	10636	3546.473637729863	3
0	10638	3546.854971708992	4
0	10642	3548.74568279866	5
0	10644	3549.405170414127	6
0	10645	3550.18145572388	5
0	10652	3552.698383456127	6
0	10653	3557.263371805247	5
0	10658	3559.0073163415	4
0	10666	3561.583815650456	5
0	10668	3565.110486077076	6
0	10669	3565.868343361535	5
0	10674	3566.440563967767	4
0	10681	3567.026173476225	5
0	10682	3567.902698432432	4
0	10688	3568.664754976375	5
0	10692	3571.362254788703	4
0	10700	3573.423876320067	5
0	10701	3578.088331019025	4
0	10708	3580.127507685875	5
0	10711	3582.77755607032	4
0	10718	3583.983996825513	5
0	10719	3584.014896571449	4
0	10725	3584.77099168566	5
0	10727	3585.052126691818	6
0	10728	3586.202323910856	5
0	10734	3587.574163208545	6
0	10741	3593.116162246304	5
0	10746	3594.124727719186	4
0	10750	3597.506770675822	5
0	10752	3600.220787528229	6
0	10755	3600.792800550982	5
0	10759	3601.463759913933	6
0	10767	3609.464961246739	5
0	10774	3610.863342391985	4
0	10783	3613.633408164951	3
0	10792	3616.368750415961	4
0	10795	3619.3449329356	3
0	10800	3621.785389773062	2
0	10807	3624.712813201055	1
0	10814	3625.722210647838	2
0	10816	3626.442597490095	3
0	10817	3627.219087732539	2
0	10822	3627.695442614311	1
0	10828	3627.704825549505	2
0	10830	3629.587899871189	3
0	10831	3630.211395046405	2
0	10841	3636.465999072214	1
0	10846	3636.997873209388	0
0	10869	3638.753939437085	1
0	10873	3639.817651256476	2
0	10875	3640.217709542089	3
0	10876	3641.571207651172	2
0	10882	3642.382185067812	1
0	10887	3642.388396308388	0
0	10901	3644.478129590578	1
0	10906	3646.602394934113	2
0	10909	3648.52689384663	1
0	10915	3649.515288461888	2
0	10917	3650.042262213142	3
0	10918	3650.949014358032	2
0	10928	3652.982947988579	3
0	10929	3653.790312073906	2
0	10935	3653.906655076328	3
0	10938	3654.510614862569	4
0	10941	3658.143770031064	3
0	10947	3659.640563305114	2
0	10955	3663.330028180342	1
0	10960	3663.774944452522	0
0	10967	3664.396755204401	1
0	10969	3665.738136462852	2
0	10972	3668.361417852365	1
0	10979	3670.602223945555	2
0	10980	3671.246999853176	1
0	10987	3673.605558335593	0
0	10995	3676.706095723705	1
0	10997	3680.408408030334	2
0	10999	3680.628504881334	3
0	11001	3681.270613251252	4
0	11002	3681.544758770179	3
0	11008	3683.939963080634	2
0	11015	3684.606578289609	3
0	11016	3686.699560289265	2
0	11024	3686.828722658601	3
0	11025	3687.433527636982	2
0	11031	3687.979872428847	3
0	11032	3688.679435901283	2
0	11039	3690.796996931028	1
0	11046	3691.376503414834	0
0	11103	3716.149119444189	1
0	11109	3717.047249065575	2
0	11111	3718.670241923024	3
0	11112	3718.835856140257	2
0	11118	3719.44719273908	3
0	11120	3721.742111687377	2
0	11128	3725.198022380146	1
0	11137	3727.719613755981	0
0	11153	3731.143374559325	1
0	11157	3731.450618415476	2
0	11158	3731.852572730154	1
0	11163	3732.213629878252	0
0	11220	3751.580492522711	1
0	11222	3751.850108012834	2
0	11223	3752.711890481706	1
0	11229	3757.452832841328	0
0	11252	3761.253681533668	1
0	11254	3762.034914523442	2
0	11256	3763.376403653227	3
0	11257	3764.336176076437	2
0	11265	3765.949592193944	1
0	11270	3767.265463774329	0
0	11285	3771.855015153405	1
0	11286	3774.163228424799	0
0	11313	3785.071664957497	1
0	11314	3785.528056904574	0
0	11323	3786.063228113849	1
0	11330	3786.335964882702	2
0	11334	3789.597390028046	3
0	11335	3790.390879994391	2
0	11344	3792.450703198919	1
0	11350	3794.349312518291	0
0	11365	3796.409920516272	1
0	11369	3799.224842240744	2
0	11371	3799.45479876315	3
0	11376	3802.532490094352	4
0	11381	3803.464743737848	3
0	11387	3804.700283470888	2
0	11393	3806.714646800748	1
0	11399	3810.300750067119	0
0	11408	3812.215606572521	1
0	11409	3812.544825751957	0
0	11438	3822.856841836301	1
0	11442	3824.78287028003	0
0	11448	3824.813347105735	1
0	11449	3825.089544291002	0
0	11457	3827.057843213643	1
0	11458	3827.212903029871	0
0	11464	3828.031951312139	1
0	11466	3829.988928322415	0
0	11472	3830.438400453009	1
0	11474	3834.985078513997	0
0	11490	3842.492856417055	1
0	11491	3843.965320025252	0
0	11498	3846.259136305736	1
0	11500	3846.871022456099	0
0	11511	3847.515843332706	1
0	11512	3848.504186908186	0
0	11523	3849.854936691714	1
0	11529	3851.788846937778	0
0	11547	3855.027723484787	1
0	11551	3856.79352921223	0
0	11570	3858.79501474729	1
0	11576	3861.110752009874	0
0	11582	3861.492583736109	1
0	11584	3861.741197658582	2
0	11587	3861.992987238293	3
0	11591	3864.099574209945	4
0	11592	3866.354748689202	3
0	11599	3867.546181246882	4
0	11601	3868.92438841051	5
0	11602	3871.149357521795	4
0	11607	3871.408030163669	3
0	11614	3873.20818532475	2
0	11619	3874.489971256956	1
0	11624	3876.579221223701	0
0	11630	3877.773769247329	1
0	11631	3878.582781315167	0
0	11635	3878.762857277779	1
0	11639	3881.684040664902	0
0	11657	3887.137693100269	1
0	11659	3890.71003338756	2
0	11661	3891.437639300391	3
0	11664	3893.039083548668	2
0	11670	3894.779307977877	1
0	11677	3895.749151246586	2
0	11678	3895.895289770209	1
0	11685	3897.269790919826	0
0	11693	3897.917580105852	1
0	11694	3898.315584389734	0
0	11706	3902.688881742952	1
0	11707	3903.606570936229	0
0	11731	3911.999276101112	1
0	11735	3915.619124551948	0
0	11741	3917.111090009548	1
0	11743	3917.150850092508	0
0	11763	3922.72397369564	1
0	11764	3923.030705369298	0
0	11779	3926.226211420589	1
0	11783	3927.479171530732	2
0	11784	3928.789880015546	1
0	11789	3928.807914557381	0
0	11800	3934.698761547771	1
0	11803	3937.406423235237	2
0	11804	3937.725020315016	1
0	11813	3940.54972445025	0
0	11821	3940.603732110109	1
0	11823	3942.860170228226	0
0	11841	3945.701027039516	1
0	11843	3947.269060824855	2
0	11845	3948.689223979716	3
0	11848	3950.424958300241	2
0	11855	3952.142509540725	3
0	11857	3954.931811841884	4
0	11858	3956.184916513826	3
0	11865	3958.4626233417	4
0	11866	3961.049203512546	3
0	11872	3961.820506879131	2
0	11878	3961.952310958238	3
0	11882	3963.991270872773	4
0	11883	3964.002154090952	3
0	11889	3964.012642446102	4
0	11892	3966.457142158881	3
0	11900	3967.612264171588	4
0	11901	3970.54247614592	3
0	11908	3972.043768197195	4
0	11909	3972.87367777578	3
0	11916	3974.122398329485	4
0	11917	3975.648069612731	3
0	11924	3977.774974758005	2
0	11930	3978.316447541945	1
0	11938	3981.991509343133	2
0	11939	3982.465886599438	1
0	11945	3982.576991184709	0
0	12006	4013.507049183952	1
0	12008	4013.573044753487	2
0	12010	4014.281608824818	3
0	12011	4014.709583018155	2
0	12016	4014.800598741203	1
0	12023	4016.242440483234	0
0	12030	4017.210915063529	1
0	12031	4020.041041117314	0
0	12057	4031.094360825317	1
0	12059	4032.601695578588	2
0	12064	4036.330322894184	1
0	12069	4037.242894946569	0
0	12080	4040.148648339764	1
0	12084	4043.221090709092	2
0	12085	4043.793997484916	1
0	12091	4044.012371653492	2
0	12094	4045.422675373696	1
0	12100	4045.712863659681	2
0	12102	4046.201569548978	1
0	12108	4047.015193941442	2
0	12112	4051.740806954485	1
0	12118	4052.427479167696	0
0	12124	4054.664260048607	1
0	12126	4056.585492665274	2
0	12128	4057.741161196378	3
0	12130	4058.989357268639	4
0	12132	4060.935822988313	5
0	12134	4061.502454486507	6
0	12135	4064.042141020602	5
0	12140	4065.491217830957	4
0	12147	4066.007903679484	5
0	12148	4066.230044057819	4
0	12154	4066.930383900751	5
0	12159	4071.512805775513	6
0	12160	4071.776508878612	5
0	12165	4072.407311434829	4
0	12170	4073.498481375391	3
0	12175	4074.170134822244	2
0	12180	4075.805569997487	1
0	12185	4077.201770350904	0
0	12191	4077.730198379784	1
0	12193	4079.638490084525	2
0	12195	4080.457620965421	3
0	12199	4083.797105249158	2
0	12205	4084.02386061853	3
0	12208	4089.975835886217	2
0	12214	4090.842566333407	3
0	12218	4093.618846498695	2
0	12225	4094.772493613843	1
0	12230	4095.485861665503	0
0	12257	4099.354852624309	1
0	12259	4099.676621118747	2
0	12260	4099.777084637552	1
0	12269	4103.020860357092	2
0	12270	4103.024865570446	1
0	12275	4103.442909890235	0
0	12290	4110.184630061006	1
0	12291	4111.981635755056	0
0	12311	4115.417851785442	1
0	12314	4118.829363821561	0
0	12320	4119.350887904868	1
0	12322	4120.929231308195	0
0	12335	4123.576640478841	1
0	12337	4124.540644917352	2
0	12341	4126.469735794747	3
0	12342	4127.228366291567	2
0	12351	4132.938268769418	1
0	12358	4135.067192716629	2
0	12359	4136.863240868896	1
0	12366	4138.766150849263	0
0	12373	4140.304421110045	1
0	12377	4140.854582357272	2
0	12383	4142.38647513082	3
0	12384	4142.887972803421	2
0	12390	4143.811530814358	1
0	12396	4144.48061730979	2
0	12398	4147.97394691515	1
0	12405	4148.978002707287	0
0	12419	4150.583757159627	1
0	12420	4154.091605005957	0
0	12466	4162.418460529676	1
0	12470	4168.028146411329	2
0	12471	4168.217121633349	1
0	12477	4169.226106498067	0
0	12493	4172.930826022853	1
0	12494	4174.086093136742	0
0	12504	4175.967132095321	1
0	12506	4176.259599463897	2
0	12510	4180.911341997369	3
0	12512	4182.170821855699	4
0	12513	4183.877853951581	3
0	12518	4184.197987583388	2
0	12523	4184.698448901049	1
0	12531	4185.083675014514	2
0	12535	4185.558871004847	1
0	12541	4186.925150044703	0
0	12597	4206.543390849152	1
0	12601	4209.887399639475	2
0	12603	4211.873191317623	3
0	12605	4211.952829329545	4
0	12607	4213.031078390921	5
0	12610	4214.3522768777	4
0	12616	4216.003590886458	5
0	12617	4216.211872290667	4
0	12623	4216.532615425638	5
0	12625	4216.918514893841	4
0	12632	4219.024717055932	3
0	12639	4221.223443802407	4
0	12641	4221.377044650248	5
0	12645	4224.525528214621	4
0	12653	4224.713405516015	3
0	12662	4227.452833787494	2
0	12672	4230.202594462545	3
0	12675	4233.50723022198	2
0	12681	4234.022543725682	3
0	12687	4237.292857034686	2
0	12693	4237.51670680065	3
0	12696	4237.663875966781	2
0	12706	4240.823814906875	1
0	12712	4242.112821865757	0
0	12723	4243.949462484453	1
0	12724	4244.973977794696	0
0	12738	4247.028366959411	1
0	12739	4248.662061782218	0
0	12751	4250.946426573042	1
0	12753	4253.656097651041	0
0	12759	4255.241472932415	1
0	12761	4257.355243056483	0
0	12767	4258.914826060204	1
0	12768	4259.687314608148	0
0	12802	4265.688965369045	1
0	12808	4272.166405126357	2
0	12809	4274.344265349846	1
0	12815	4275.039370283365	2
0	12817	4275.406501519635	1
0	12827	4277.265867818009	0
0	12838	4278.34787824993	1
0	12839	4278.64480782578	0
0	12871	4295.673631904797	1
0	12874	4297.638750126532	0
0	12893	4304.91921554178	1
0	12895	4306.955524630806	2
0	12899	4307.404180953449	3
0	12900	4308.922269438911	2
0	12906	4310.581784275223	1
0	12912	4312.80888421588	0
0	12918	4314.563875638504	1
0	12919	4315.12713612547	0
0	12939	4324.953630038069	1
0	12941	4325.088664722149	2
0	12945	4325.970981222351	1
0	12950	4328.750445013314	0
0	12957	4329.771724113492	1
0	12960	4332.399423057597	0
0	12978	4334.064417843989	1
0	12980	4334.142024379975	2
0	12983	4336.165516035252	3
0	12985	4336.554549232221	4
0	12993	4338.97795149151	5
0	12997	4341.263339317759	6
0	12998	4341.622889335527	5
0	13004	4344.217611605939	4
0	13011	4345.369654880369	5
0	13013	4345.520237921214	6
0	13014	4345.767742092084	5
0	13020	4347.539205749442	4
0	13025	4349.157299436925	3
0	13030	4349.220103981257	2
0	13035	4350.303716732172	1
0	13039	4351.314922860933	2
0	13041	4352.363241926931	3
0	13046	4353.499203599788	2
0	13052	4355.668357127469	3
0	13056	4357.211909607233	4
0	13058	4358.068342024769	3
0	13062	4358.23915234296	4
0	13064	4359.080157273975	5
0	13067	4359.991750865583	4
0	13073	4361.373315369962	5
0	13079	4366.426176467348	6
0	13085	4370.029175706248	5
0	13091	4370.931960698332	6
0	13096	4373.173011581238	5
0	13109	4377.177985333412	4
0	13115	4378.804050232824	5
0	13117	4379.701803015099	4
0	13124	4380.673575803147	5
0	13126	4380.879602469286	6
0	13127	4380.906489775224	5
0	13133	4381.475506361993	4
0	13138	4381.506846084106	3
0	13144	4381.697396776897	2
0	13151	4382.90636114121	3
0	13152	4383.839871069104	2
0	13158	4383.910749781448	3
0	13159	4384.236758556005	2
0	13165	4384.259622401214	3
0	13166	4384.833271921047	2
0	13170	4385.257625968449	3
0	13172	4387.09600989127	4
0	13174	4388.361037731653	5
0	13178	4389.474342888659	4
0	13184	4390.139379352299	5
0	13185	4390.58497000589	4
0	13191	4391.342230664745	3
0	13198	4394.364966236323	2
0	13204	4395.106517098179	1
0	13210	4396.73432368116	2
0	13212	4397.786071870154	3
0	13213	4398.429159636431	2
0	13221	4403.002651287505	1
0	13227	4406.946141252392	0
0	13274	4420.213397925054	1
0	13282	4422.953845880926	2
0	13284	4424.171468381732	3
0	13287	4426.556732173953	2
0	13293	4427.585612914418	1
0	13298	4429.363169114426	0
0	13305	4430.815155560562	1
0	13313	4432.389332954103	2
0	13315	4434.186607883605	3
0	13317	4434.771117085961	4
0	13318	4436.029303665484	3
0	13328	4440.216097783	4
0	13332	4442.424449368114	5
0	13333	4442.819602788511	4
0	13338	4444.444675888099	3
0	13345	4445.673190337544	2
0	13351	4445.9935132918	3
0	13352	4446.185079597261	2
0	13359	4447.801730048107	1
0	13365	4449.577917473123	0
0	13387	4453.669208089573	1
0	13392	4457.163688258274	0
0	13398	4457.68975293575	1
0	13402	4459.126193940185	2
0	13403	4461.07608568678	1
0	13409	4461.38049057794	0
0	13438	4471.653414251648	1
0	13441	4474.510005470081	0
0	13449	4476.74623718682	1
0	13453	4477.145581354002	2
0	13454	4478.025098549537	1
0	13461	4479.528826073689	0
0	13484	4482.67019205034	1
0	13488	4490.677334544276	2
0	13495	4492.382908885135	3
0	13496	4492.662074091885	2
0	13507	4496.393541864068	1
0	13515	4497.106403427832	2
0	13516	4498.903583694982	1
0	13522	4498.952235358187	2
0	13525	4503.819204951969	1
0	13530	4504.554756114198	0
0	13539	4506.818822586673	1
0	13540	4507.565726791855	0
0	13556	4512.650283425445	1
0	13559	4514.532881667988	2
0	13563	4519.802950099364	3
0	13568	4521.439369198567	2
0	13574	4522.090659495584	3
0	13576	4522.480501251398	4
0	13577	4523.250190089558	3
0	13583	4523.328728940688	4
0	13584	4523.478133310711	3
0	13591	4524.818917515807	4
0	13595	4526.801227562607	5
0	13598	4527.661887644761	4
0	13604	4528.0978014072	3
0	13615	4529.580193644542	4
0	13617	4529.797179025012	5
0	13618	4530.137179231273	4
0	13623	4530.153754483007	3
0	13628	4531.243418443622	2
0	13636	4532.91154709861	1
0	13645	4534.233800324951	2
0	13646	4536.498951746191	1
0	13651	4536.600173827024	0
0	13663	4537.95693482376	1
0	13668	4539.460662807546	0
0	13692	4553.45956673913	1
0	13694	4553.670740369055	2
0	13697	4557.964655475266	1
0	13703	4559.64138492094	0
0	13722	4566.11419017248	1
0	13723	4566.473919955317	0
0	13731	4568.061592866965	1
0	13733	4569.654006539552	2
0	13735	4569.958295014315	3
0	13736	4570.935180425271	2
0	13743	4574.421115318268	3
0	13746	4575.379427279869	4
0	13747	4578.090723933283	3
0	13753	4579.343321407183	4
0	13759	4582.441465813694	3
0	13766	4583.012594041987	4
0	13770	4584.212143111917	3
0	13776	4587.600479551244	2
0	13784	4590.821895581535	1
0	13789	4591.799663441125	0
0	13801	4595.05057575757	1
0	13802	4595.758534001096	0
0	13835	4601.864514359	1
0	13839	4604.116377850698	2
0	13841	4608.402095282039	3
0	13842	4609.45058475891	2
0	13847	4609.525409427703	1
0	13854	4612.339215997932	0
0	13873	4617.498613147048	1
0	13875	4618.81829889006	2
0	13876	4621.953413273511	1
0	13882	4623.968531764376	0
0	13888	4624.399653359449	1
0	13890	4625.135095648451	2
0	13891	4625.202167400729	1
0	13898	4626.227896201333	2
0	13902	4628.049364933506	1
0	13909	4630.751811162436	2
0	13910	4631.354411693396	1
0	13915	4633.377483765285	0
0	13921	4633.408606901221	1
0	13923	4633.535936781793	2
0	13926	4636.305534694961	1
0	13934	4641.44080388903	0
0	13956	4646.56409358168	1
0	13957	4646.694581863585	0
0	13981	4652.095200607649	1
0	13986	4654.117951607714	2
0	13987	4656.466578598859	1
0	13992	4656.536783026229	0
0	13998	4657.132869841621	1
0	13999	4657.20372642776	0
0	14010	4657.428978014749	1
0	14013	4658.217925633251	0
0	14017	4660.084035296255	1
0	14020	4660.540166491598	0
0	14027	4664.113033636132	1
0	14033	4668.257532044133	2
0	14041	4671.552373643295	1
0	14048	4671.903627818692	0
0	14059	4672.034478935551	1
0	14060	4672.67254233776	0
0	14071	4672.754184995986	1
0	14074	4674.41246493317	0
0	14084	4675.379926843665	1
0	14087	4677.424773123271	0
0	14101	4680.494611903047	1
0	14102	4680.552293009811	0
0	14126	4690.268385440703	1
0	14129	4691.059520853351	0
0	14143	4697.687194518733	1
0	14152	4700.831312056771	0
0	14168	4703.215159132113	1
0	14171	4709.109382915847	0
0	14197	4719.004988765649	1
0	14200	4721.343099961565	0
0	14209	4725.173081110595	1
0	14210	4725.360354004258	0
0	14224	4730.332140011724	1
0	14228	4731.048563695395	2
0	14230	4731.553409981037	1
0	14236	4733.279277764585	0
0	14245	4734.442621094049	1
0	14246	4734.899273666261	0
0	14258	4737.213597062815	1
0	14259	4738.827951106998	0
0	14273	4740.512936117359	1
0	14276	4740.93550061258	0
0	14282	4741.597631922154	1
0	14283	4742.010274104604	0
0	14291	4744.534170036634	1
0	14293	4746.003183525054	0
0	14315	4757.984058973668	1
0	14316	4759.076971430783	0
0	14325	4760.414827092312	1
0	14327	4760.703237586952	0
0	14340	4763.484616084273	1
0	14341	4764.166184018613	0
0	14357	4768.016767763998	1
0	14358	4768.271090625367	0
0	14367	4770.71276094445	1
0	14370	4771.422832518231	2
0	14371	4772.186445751181	1
0	14376	4772.339632773622	0
0	14419	4785.024826219517	1
0	14420	4785.04008598958	0
0	14427	4785.325031714353	1
0	14429	4785.689733787774	2
0	14431	4786.380663073389	3
0	14433	4790.79463537125	4
0	14436	4792.971614989295	3
0	14442	4793.179523529427	4
0	14444	4794.073276528651	3
0	14450	4800.402867688308	4
0	14452	4802.086395092818	3
0	14459	4803.533824800215	4
0	14461	4804.913284101989	5
0	14463	4808.453301039529	6
0	14464	4808.726800317975	5
0	14470	4808.97041224804	6
0	14471	4809.529531037326	5
0	14480	4812.332249087509	6
0	14481	4812.584997955173	5
0	14487	4813.205093149604	6
0	14497	4817.801053135154	7
0	14499	4818.192516930981	8
0	14500	4819.000927815078	7
0	14510	4820.706429748095	8
0	14511	4822.535246163233	7
0	14517	4824.203282386076	6
0	14522	4824.504059734752	5
0	14527	4824.752340078968	4
0	14535	4827.930548616875	3
0	14546	4832.089173167094	2
0	14553	4834.565719184837	1
0	14559	4836.391058374615	0
0	14565	4836.705423025499	1
0	14567	4838.816952007265	0
0	14574	4839.758428361741	1
0	14575	4841.000387994965	0
0	14597	4847.135378736423	1
0	14598	4847.575087606176	0
0	14623	4855.921710764174	1
0	14627	4857.339187636667	2
0	14628	4857.389954898683	1
0	14636	4858.329404936469	2
0	14638	4858.760889120096	3
0	14640	4860.307961566518	4
0	14641	4862.694080732124	3
0	14646	4862.967310644583	2
0	14651	4863.143238472495	1
0	14657	4863.332433986438	2
0	14658	4863.383660561442	1
0	14666	4865.037414763035	0
0	14670	4865.745653524807	1
0	14675	4868.727961550673	2
0	14677	4868.833005932435	3
0	14678	4870.111988648111	2
0	14685	4872.568461204655	1
0	14692	4874.877258801662	2
0	14696	4878.333220036178	1
0	14702	4878.489413913411	2
0	14704	4878.99851578611	1
0	14710	4879.256462578191	2
0	14712	4879.487129035884	3
0	14715	4881.477010269191	2
0	14721	4881.560812292044	1
0	14726	4881.592849411352	0
0	14744	4882.180645423	1
0	14745	4882.387261398951	0
0	14774	4890.563023018632	1
0	14775	4891.174037493946	0
0	14781	4891.655633975232	1
0	14785	4895.5642861166	0
0	14791	4895.872543167638	1
0	14794	4896.227352849866	2
0	14797	4897.082735833332	3
0	14798	4897.433554131634	2
0	14803	4897.657090571294	1
0	14811	4899.78573419559	2
0	14818	4905.011609367955	1
0	14823	4905.246238842636	0
0	14829	4905.272085208749	1
0	14831	4906.336053969274	0
0	14843	4906.844240697031	1
0	14844	4906.979066928121	0
0	14855	4909.270936320438	1
0	14857	4911.193538165032	0
0	14869	4914.029964709889	1
0	14870	4915.314305474556	0
0	14878	4917.305610416122	1
0	14879	4918.851098726252	0
0	14883	4919.334160713228	1
0	14885	4919.622184950331	2
0	14893	4923.710148280893	1
0	14900	4923.855089837889	2
0	14901	4925.216208239926	1
0	14907	4925.237865802717	2
0	14909	4925.616803054887	3
0	14914	4928.242857151326	2
0	14920	4930.565437386942	1
0	14927	4931.10356912942	2
0	14928	4933.685192516766	1
0	14934	4933.685309382078	2
0	14936	4934.760256453819	3
0	14937	4935.122640694548	2
0	14943	4935.737358868024	3
0	14945	4936.099057632796	2
0	14955	4939.32890107533	3
0	14959	4943.236664797389	4
0	14960	4946.610691786135	3
0	14966	4947.519643861521	4
0	14967	4953.654054767278	3
0	14973	4956.538553330096	2
0	14979	4957.327776567467	3
0	14980	4957.734105242478	2
0	14987	4958.400066681949	3
0	14989	4958.681997755666	2
0	14995	4959.351061788715	1
0	15000	4959.964101234375	0
0	15027	4968.192361933432	1
0	15029	4969.325326981903	2
0	15030	4970.58094629272	1
0	15036	4972.04935065285	0
0	15052	4975.497201800342	1
0	15056	4976.263850190598	2
0	15058	4976.549787246008	3
0	15060	4977.360523266697	4
0	15061	4977.588970111991	3
0	15067	4978.857115746333	2
0	15076	4980.87772545088	1
0	15082	4981.154562485423	0
0	15090	4987.768810466526	1
0	15096	4990.212909226607	2
0	15097	4990.784031865381	1
0	15102	4992.551685610027	0
0	15126	4993.952501370669	1
0	15129	4996.886480563389	0
0	15135	4999.880665016213	1
0	15137	5000.438996368377	2
0	15139	5001.114949634531	3
0	15143	5003.000474489324	2
0	15148	5004.045653431441	1
0	15152	5004.298706115021	2
0	15157	5006.79204056976	3
0	15160	5008.541092250936	4
0	15161	5009.300333273495	3
0	15168	5011.293466644645	2
0	15173	5012.174704858971	1
0	15178	5013.106898035884	0
0	15184	5013.912537690847	1
0	15190	5016.623873002361	0
0	15199	5018.64167534008	1
0	15202	5021.746187285133	0
0	15218	5028.151148857152	1
0	15220	5029.243298866712	2
0	15222	5030.997247757855	3
0	15225	5031.687858256856	2
0	15232	5034.180602131126	1
0	15239	5036.583418688734	0
0	15252	5036.985585014215	1
0	15253	5038.359515484893	0
0	15260	5039.965808652255	1
0	15261	5040.325140792029	0
0	15290	5050.745757438738	1
0	15291	5053.511307735444	0
0	15318	5066.427114632652	1
0	15319	5067.680296631464	0
0	15330	5068.975036863415	1
0	15332	5069.913830414536	0
0	15338	5070.291587461389	1
0	15346	5075.065652535925	0
0	15360	5078.173728292201	1
0	15362	5078.914058803998	2
0	15366	5083.862501650862	3
0	15369	5084.767150116746	4
0	15371	5085.954370776477	5
0	15372	5086.748537083834	4
0	15378	5089.130293952853	3
0	15384	5090.727600849115	2
0	15390	5091.353924411782	3
0	15391	5091.400847562695	2
0	15397	5094.093106742024	1
0	15403	5094.514860178609	2
0	15405	5096.143721074286	1
0	15415	5100.542659245454	0
0	15426	5101.854922344249	1
0	15428	5103.260529266884	2
0	15437	5107.915768155846	3
0	15440	5112.827090324469	2
0	15446	5118.027652378963	1
0	15452	5119.874666439181	0
0	15464	5121.763136976547	1
0	15469	5125.231891730191	0
0	15476	5127.352140871413	1
0	15477	5130.381624686585	0
0	15490	5132.404527092199	1
0	15491	5136.377698189288	0
0	15503	5139.520940944807	1
0	15505	5140.578424909275	2
0	15506	5140.671648256334	1
0	15511	5141.010098899309	0
0	15520	5143.040665413737	1
0	15525	5146.968123294019	0
0	15542	5151.960042644242	1
0	15546	5152.698135485078	2
0	15550	5154.418782738199	1
0	15557	5155.076886088581	2
0	15559	5155.099449623089	3
0	15561	5157.674448402588	4
0	15564	5159.519511520779	3
0	15570	5161.653179792833	4
0	15571	5161.661088572878	3
0	15579	5162.807881736895	2
0	15586	5163.367464339996	1
0	15591	5163.436920925834	0
0	15629	5179.237066679823	1
0	15630	5180.553746842066	0
0	15639	5180.910029400505	1
0	15654	5194.810673599901	2
0	15655	5197.143029083177	1
0	15662	5198.746295618498	2
0	15666	5200.69217219807	3
0	15671	5203.895320776945	2
0	15677	5205.055947851569	1
0	15687	5211.278074193531	0
0	15712	5216.745682797287	1
0	15716	5222.379723522881	2
0	15717	5222.725726013512	1
0	15722	5223.452861806058	0
0	15735	5224.628815086856	1
0	15736	5225.428016504047	0
0	15745	5225.969295972466	1
0	15750	5229.319758588735	0
0	15765	5230.18331633915	1
0	15768	5231.384217170274	0
0	15774	5232.052778522957	1
0	15776	5232.188004074937	2
0	15781	5235.701501193117	3
0	15782	5237.97228043453	2
0	15789	5240.550036495103	1
0	15794	5240.579940030862	0
0	15800	5240.62123883484	1
0	15804	5242.527258344298	2
0	15805	5243.027598365446	1
0	15812	5245.905226696146	0
0	15838	5251.515098049425	1
0	15840	5251.964689494678	2
0	15841	5254.911230114566	1
0	15848	5255.88124578984	2
0	15853	5257.186921956044	1
0	15861	5258.606974813473	2
0	15866	5262.702711822294	3
0	15869	5264.30659569249	2
0	15875	5266.86361930624	1
0	15881	5267.370227328646	2
0	15886	5273.971674883292	1
0	15893	5278.30214207043	2
0	15897	5279.068510443952	3
0	15898	5280.668364041789	2
0	15904	5280.780243287025	3
0	15905	5282.557166119649	2
0	15911	5282.887055192047	1
0	15917	5283.154495146273	2
0	15918	5284.399554075122	1
0	15923	5285.104106745076	0
0	15960	5294.536202533799	1
0	15961	5295.486465264956	0
0	15967	5295.826313261725	1
0	15968	5296.079668086326	0
0	15994	5304.947076989012	1
0	16001	5307.279680251528	2
0	16003	5307.325529919839	3
0	16004	5307.460685323933	2
0	16009	5308.799329623861	1
0	16020	5311.204741288867	2
0	16021	5311.698679355292	1
0	16027	5312.921871100443	0
0	16034	5314.299434148022	1
0	16035	5315.125323253851	0
0	16070	5323.474048479351	1
0	16071	5325.27292138395	0
0	16081	5327.72666502579	1
0	16084	5329.621741177364	0
0	16096	5331.972388937678	1
0	16097	5335.089080115163	0
0	16106	5338.63436500877	1
0	16107	5339.092959187463	0
0	16113	5339.173084262699	1
0	16115	5339.542326270611	2
0	16118	5340.608312464615	3
0	16119	5342.956809133422	2
0	16125	5343.215674955127	3
0	16127	5344.008391510264	2
0	16132	5344.441469511088	1
0	16137	5344.764743732115	0
0	16146	5348.218938228934	1
0	16148	5349.578555783039	0
0	16152	5351.080569709589	1
0	16156	5353.02398574039	2
0	16161	5354.663656227834	1
0	16166	5358.589024958925	0
0	16179	5361.663806798736	1
0	16181	5361.679580973155	2
0	16183	5362.085877333157	3
0	16186	5362.567181706386	4
0	16189	5363.238721187534	3
0	16196	5364.920722455531	2
0	16202	5365.210017666542	3
0	16203	5365.252939380373	2
0	16209	5366.893864867216	3
0	16211	5367.478248996011	2
0	16218	5369.861293357686	1
0	16224	5372.757239081192	0
0	16253	5378.432041270855	1
0	16255	5380.385341932777	2
0	16257	5384.139373944368	3
0	16258	5384.652160317194	2
0	16264	5387.331016423897	1
0	16269	5388.046462460129	0
0	16275	5388.291691919472	1
0	16278	5389.962529173851	0
0	16304	5395.975650455664	1
0	16306	5396.852441168129	2
0	16310	5397.604938291824	3
0	16311	5398.148272235967	2
0	16318	5398.555114342519	1
0	16323	5399.833084730882	0
0	16327	5402.710350636548	1
0	16329	5403.487447623658	2
0	16337	5408.980459861745	1
0	16342	5409.37366547089	0
0	16350	5410.604640568499	1
0	16351	5413.501215857994	0
0	16366	5417.860670007304	1
0	16370	5419.32714108435	2
0	16373	5419.909620928103	1
0	16382	5424.127301503871	0
0	16400	5428.380470932028	1
0	16402	5428.89614341539	2
0	16403	5431.332850413157	1
0	16408	5431.839276353071	0
0	16414	5431.915392012892	1
0	16417	5433.111582072263	0
0	16439	5441.169870703409	1
0	16442	5445.085482913583	0
0	16472	5454.257175408015	1
0	16476	5456.612151751614	2
0	16477	5457.914072113506	1
0	16485	5457.956965454326	2
0	16486	5458.537030838296	1
0	16492	5459.927239912322	0
0	16501	5468.777527515701	1
0	16504	5470.815160985654	0
0	16511	5474.281267017254	1
0	16512	5474.493557547673	0
0	16523	5477.44488783114	1
0	16525	5479.469013841994	2
0	16527	5487.374771040634	3
0	16528	5488.383230026147	2
0	16535	5490.175308415605	3
0	16538	5495.201848056492	2
0	16545	5497.154539279947	3
0	16546	5497.453990821901	2
0	16551	5497.509505832771	1
0	16556	5498.5690065717	0
0	16560	5499.314015960861	1
0	16565	5500.761125577201	0
0	16579	5505.11075542177	1
0	16580	5506.051812818701	0
0	16603	5513.575573293252	1
0	16604	5513.715554802168	0
0	16611	5516.828754637242	1
0	16617	5521.70787578298	2
0	16618	5522.140850853677	1
0	16625	5524.098969000855	2
0	16627	5526.067435226663	3
0	16628	5526.387790325821	2
0	16634	5527.384347463847	1
0	16639	5527.415631611619	0
0	16645	5527.530137848618	1
0	16650	5531.075323636251	2
0	16651	5533.054672649331	1
0	16656	5533.144171047842	0
0	16663	5535.327287515532	1
0	16665	5536.354221309982	0
0	16676	5542.183950586623	1
0	16677	5542.437209111826	0
0	16690	5545.500523943134	1
0	16691	5548.235528213994	0
0	16705	5556.002716121162	1
0	16706	5557.217499307412	0
0	16717	5557.662281834513	1
0	16718	5557.876008283062	0
0	16742	5564.768718543614	1
0	16744	5570.550412610457	0
0	16750	5571.108523833376	1
0	16754	5573.115682430287	0
0	16767	5574.818115510865	1
0	16774	5578.681195631156	2
0	16776	5580.798628548631	3
0	16780	5580.890506360262	4
0	16781	5583.32673956275	3
0	16788	5588.352368050372	2
0	16798	5592.570487030506	1
0	16803	5593.826955344205	0
0	16821	5597.073069976659	1
0	16825	5600.425208000712	0
0	16861	5606.028124426072	1
0	16863	5606.894669205189	2
0	16865	5609.400406922859	3
0	16866	5609.676055253966	2
0	16872	5610.411031822543	1
0	16877	5611.473317003822	0
0	16888	5614.489920342747	1
0	16891	5615.425363577894	0
0	16921	5626.549783101914	1
0	16922	5626.884543005943	0
0	16946	5631.554241900286	1
0	16947	5633.81548941056	0
0	16966	5639.085480661444	1
0	16971	5642.095686413287	0
0	16977	5642.198357065411	1
0	16979	5643.288497842987	0
0	16996	5647.749518126201	1
0	17002	5649.192924484885	2
[...]
5	83668	28019.354176927347	11.9208916323
5	83673	28019.409596260044	7.639733004967
5	83682	28023.404708969868	10.950632458024
5	83693	28027.221385489364	12.389920962034
5	83698	28027.384652383846	10.399163593016
5	83707	28029.854231843755	12.583271671244
5	83712	28029.969228240334	11.753548699156
5	83721	28037.417019410372	13.350949620821
5	83731	28039.532635655314	14.591100384509
5	83738	28041.110874084642	11.855009905029
5	83750	28044.451609996659	6.237310430567
5	83755	28044.552969320083	4.548471530573
5	83760	28044.724098052208	2.19371883176
5	83777	28050.570307611661	5.590832552699
5	83786	28053.151835075034	3.243891589051
5	83800	28056.906675290945	2.699201744384
5	83827	28064.482312687418	4.751114506369
5	83833	28065.751524265317	5.654489117814
5	83847	28072.897060670607	3.897921487007
5	83858	28074.258888817083	4.687233910969
5	83872	28078.925559058904	2.932275064864
5	83879	28082.790420722144	6.668188892641
5	83900	28089.370530943991	5.71591282109
5	83908	28092.775483634448	8.3900652459
5	83936	28103.266829267826	7.04825811526
5	83965	28114.855587069269	6.066893468857
5	83985	28125.494808805779	3.891817845829
5	83991	28125.939766551722	4.0645811973
5	84003	28128.943332327183	6.855260844714
5	84044	28148.763445584649	7.360151440114
5	84051	28152.21282441296	5.179914580401
5	84077	28163.375177158144	7.953053911865
5	84083	28163.798534906608	5.998043175725
5	84097	28166.001771914753	1.822562184498
5	84108	28168.658463179524	3.569599107383
5	84142	28181.52253161316	0.984483117319
5	84158	28184.392421117193	2.716486588703
5	84163	28184.513768053511	1.945660495017
5	84197	28199.574854332942	3.151982625045
5	84206	28200.559151741106	3.9862447884
5	84228	28211.561745688057	10.824494886622
5	84233	28212.356360630757	9.524589462776
5	84238	28212.944433376015	5.728827202286
5	84279	28227.445087909002	2.362866735843
5	84309	28245.814930012377	13.099159639343
5	84315	28247.269644966501	12.62486567415
5	84325	28248.269250787329	10.947975956663
5	84333	28250.428820497945	11.56786925917
5	84339	28251.465709005435	7.327935661052
5	84344	28251.53984497116	4.1894806031
5	84362	28254.028548032525	1.327427539736
5	84391	28260.94739870951	2.695912005354
5	84396	28261.085797739632	1.105205611448
5	84403	28265.010075794735	4.32015259686
5	84417	28275.443500074342	11.26406754373
5	84422	28275.571165296219	9.147676557606
5	84427	28277.207812193839	7.584301886628
5	84457	28293.874843299734	4.364681085803
5	84483	28305.035181015414	7.221266374863
5	84489	28306.732617336734	8.133476672815
5	84499	28310.175908354036	10.748100064426
5	84504	28310.201226267498	9.166970584823
5	84509	28310.70644006382	5.84133531747
5	84535	28319.889374323201	6.500206061215
5	84555	28326.074882014185	5.719468494123
5	84560	28326.232817426535	4.636289228101
5	84565	28326.803448636627	3.144896584057
5	84593	28341.489993591081	8.517490423911
5	84613	28351.153850466545	6.254001538746
5	84650	28368.71456441708	13.850662524961
5	84655	28368.841125760474	8.925040277537
5	84663	28370.113271293035	6.720051288784
5	84671	28371.313042980308	5.246339971343
5	84676	28371.362677050307	4.908457091316
5	84685	28373.91202092844	6.806134168606
5	84692	28375.851444977675	8.485759433195
5	84702	28386.692843811788	17.018231249313
5	84711	28389.563962160504	18.589336532455
5	84719	28390.554222491682	18.725774603036
5	84751	28402.148427055055	3.278141862622
5	84774	28407.627362629077	5.083601874014
5	84788	28411.849876121445	6.676690307262
5	84794	28412.721341581378	4.81219096943
5	84802	28414.401774001746	5.359100374015
5	84808	28414.600541703085	2.75108629319
5	84813	28415.284063733359	2.161867985985
5	84854	28432.768888816833	9.314432642756
5	84859	28434.61227261083	10.099224560022
5	84868	28437.483638509711	8.236310282519
5	84875	28440.673618900969	4.077953298218
5	84925	28460.377042208935	5.121624766039
5	84930	28460.495364987317	0.607840521049
5	84962	28468.777730990899	5.244278930102
5	84970	28470.624734977162	4.27922850998
5	84975	28471.278242104293	4.87328628629
5	84980	28472.008427816352	5.588323257134
5	84985	28472.328549818618	5.516016969759
5	85016	28489.699528140521	11.617954127249
5	85023	28493.175827796941	14.084888478381
5	85028	28493.473264375118	14.321717656233
5	85040	28498.391961866428	12.646263517605
5	85045	28498.53716481266	7.060205598733
5	85053	28502.168966431884	5.451008301667
5	85072	28510.559257286916	2.626438420586
5	85077	28511.245545428801	2.958693498065
5	85084	28512.098051639644	2.617889765941
5	85101	28519.948987939405	5.737723519867
5	85128	28523.962791134771	2.744311771769
5	85135	28524.859073525628	3.487111010718
5	85147	28530.671976316321	8.954602365454
5	85153	28530.975344090654	7.839111996038
5	85173	28538.526701822588	13.325951452906
5	85181	28541.318767629219	9.779243618503
5	85193	28543.400674129625	11.489188797606
5	85201	28546.324107067647	13.689360716825
5	85219	28558.088952366189	23.854278880803
5	85227	28558.900579199534	17.580370740796
5	85235	28559.469714060135	18.045142895318
5	85242	28560.449704225536	16.123040689352
5	85252	28562.523110584882	11.053940310403
5	85257	28563.228359276881	10.561102508638
5	85262	28565.920085324416	4.321960210121
5	85284	28575.306435866902	6.170734472419
5	85290	28575.761372002424	3.035965021507
5	85308	28579.170495164718	2.527130850021
5	85338	28590.307276266666	3.05524758595
5	85343	28591.142705016869	3.413915872202
5	85362	28598.202763560049	1.583777908065
5	85388	28605.568093086971	6.106927828798
5	85395	28606.141012087589	6.151671701971
5	85417	28612.974490310305	4.284935930373
5	85422	28613.221233783082	1.935218730174
5	85437	28616.174633986495	1.851198607011
5	85443	28618.516228045039	2.501116204111
5	85471	28624.895839508848	1.098832010036
5	85511	28636.523874606264	3.360554389188
5	85529	28642.052129068369	2.972188419726
5	85544	28645.840400399202	2.541711683818
5	85572	28657.506490060405	6.197341926998
5	85584	28659.638756082201	2.339190864366
5	85591	28661.488713269837	3.750510324055
5	85597	28663.571040038385	4.581214413408
5	85606	28664.659387660524	4.442263967435
5	85614	28667.618679496412	3.112061261319
5	85656	28681.266095631557	6.507217449678
5	85661	28682.463354298559	6.862250156096
5	85668	28684.106817234091	7.484659468023
5	85674	28684.940149760928	5.869671130439
5	85685	28687.781511329159	7.763308453561
5	85698	28694.4332793189	11.634501633347
5	85711	28704.136828614955	17.239181673562
5	85721	28707.970723026339	20.558353499414
5	85731	28711.294263894198	23.880775736231
5	85736	28711.831392010021	18.785550767987
5	85746	28714.615024351499	15.357979823999
5	85754	28715.886839283537	14.080897119059
5	85759	28716.587487167016	8.79897766836
5	85781	28726.583140730581	17.624005488044
5	85796	28732.438547998588	20.113814384691
5	85809	28738.731323943723	25.624343473158
5	85819	28741.651611882755	26.973368797849
5	85824	28742.554230008648	25.518427348601
5	85835	28752.272442112582	32.50360624619
5	85840	28752.466633465584	31.620775168642
5	85848	28753.230094248759	30.302336620487
5	85863	28756.708542125348	30.064020933795
5	85870	28759.044296317498	31.702273955982
5	85876	28760.782141731388	33.098384846273
5	85881	28761.536613310439	32.774552714446
5	85888	28762.890982474252	26.860781913499
5	85899	28769.184116188004	12.563964776689
5	85912	28775.002617857991	17.200179647679
5	85926	28780.341502919011	18.577582067171
5	85938	28786.918102660314	23.174028025408
5	85946	28790.807531611749	23.432700938507
5	85953	28791.451876355888	20.537546443215
5	85958	28792.770560868782	19.22764236334
5	85963	28793.856120748996	17.512985539442
5	85972	28798.370443315139	21.165857332859
5	85981	28802.756377870783	21.050660679041
5	85986	28804.673966181498	22.08458174691
5	85991	28804.679906695427	19.254622163131
5	86001	28812.809745322225	21.915756369245
5	86006	28813.866201761433	11.982201399253
5	86025	28818.29187212528	3.654598642296
5	86053	28827.713827180899	6.197931786704
5	86058	28828.4986280629	6.902233740433
5	86068	28833.391549258008	10.990506801554
5	86074	28839.10945723398	14.55546219821
5	86088	28843.206503565699	18.2306489663
5	86097	28845.444441637483	5.787099354652
5	86104	28846.354645656127	4.991064704203
5	86124	28853.76745039921	6.038758572331
5	86129	28854.451314783831	1.502562031127
5	86164	28860.531684980679	1.308403501791
5	86169	28860.973855458667	1.426578261413
5	86201	28866.619579345406	5.514495695118
5	86209	28868.774506334656	6.464156114606
5	86219	28871.230407501186	6.825800681389
5	86226	28873.574775016834	8.264203048854
5	86231	28874.391824271351	5.73393078871
5	86238	28876.402843916148	6.823056461617
5	86243	28877.993159689095	6.132717756222
5	86258	28880.931870870927	2.777043955082
5	86281	28887.664329749647	3.397217776868
5	86305	28895.930128790743	5.243964796573
5	86313	28897.418183436323	4.946344818051
5	86327	28903.948546062322	5.033173196738
5	86343	28911.369136346976	10.661235670595
5	86353	28915.563437235245	10.033863382863
5	86387	28934.583939543459	10.395298356277
5	86396	28935.712806548664	4.595168517032
5	86404	28937.452639824408	4.746128370669
5	86410	28938.80466364621	3.442314393873
5	86417	28945.632035242394	10.2645370775
5	86438	28950.417283951166	1.810240808429
5	86447	28952.526505448859	2.372242425947
5	86455	28954.721637917046	4.052624974324
5	86468	28956.655032207922	1.779814581237
5	86484	28962.427318678131	5.471020794637
5	86491	28965.039433658553	7.019098364711
5	86534	28978.786236295118	3.296243463029
5	86581	28989.683386032631	4.229039011871
5	86593	28994.347189076413	7.749579671741
5	86600	28994.493830044405	5.483452107761
5	86609	29001.3301464252	8.078747345599
5	86614	29002.878270718779	8.444853771029
5	86619	29004.322205375142	8.515077104668
5	86645	29011.028689327574	3.231138571489
5	86669	29016.793525154421	5.375874334867
5	86681	29021.85237247428	7.370023419236
5	86689	29023.65892829027	7.301992501268
5	86699	29026.027957800095	9.328815841962
5	86707	29028.845363206184	8.708795962756
5	86714	29033.143548958268	10.357127783637
5	86719	29033.177345757034	9.239927095302
5	86742	29041.970975858673	13.854554176394
5	86747	29043.472224183148	10.276564769142
5	86756	29047.422537934843	11.253996180402
5	86761	29048.75878904987	10.405382451878
5	86766	29051.050075809051	6.369116748211
5	86785	29057.458755802788	5.724100362441
5	86790	29057.912626739936	2.126118218631
5	86810	29073.780101027461	10.540661890418
5	86816	29075.567026399813	9.954869726021
5	86821	29078.11051589063	10.661317278225
5	86830	29080.759828326515	11.016763619488
5	86836	29083.190904382973	4.312856434902
5	86863	29092.189328494852	7.060276056795
5	86869	29093.275585862059	5.987263670255
5	86882	29096.11858275081	8.557744056925
5	86887	29097.259011459361	7.790335776221
5	86896	29100.372600048425	6.314325120195
5	86905	29103.160836763877	8.522144698486
5	86910	29104.114750592844	8.83108370784
5	86918	29105.329806013551	9.685438952896
5	86926	29106.190654450649	6.736659720107
5	86933	29108.12584971421	3.969065341471
5	86945	29114.369923453599	8.822140423555
5	86951	29115.68544985028	7.205935586888
5	86964	29120.154331292582	10.002300029747
5	86989	29136.807647504757	18.078681438628
5	86996	29139.529502636714	19.108298496942
5	87003	29143.095459495484	21.590848620178
5	87009	29143.694063986584	19.97703394334
5	87021	29147.119522307347	22.427857648474
5	87026	29151.024388957435	24.383893888873
5	87035	29153.638760979045	18.121647878012
5	87042	29153.789192329467	17.277943427898
5	87047	29154.743230682384	16.862438358902
5	87054	29155.721100467523	14.517816036517
5	87069	29163.695429776869	17.026630312132
5	87080	29167.76881792104	14.660781820229
5	87087	29174.124824992752	17.914057321582
5	87095	29176.932974641542	16.934371146305
5	87100	29176.943627860963	14.70292612717
5	87112	29181.100747205572	3.332135720837
5	87125	29187.290375168854	3.714517079572
5	87159	29206.452757943712	16.067649075446
5	87164	29207.57452013104	16.180401703096
5	87169	29207.577464792062	8.896066284851
5	87175	29208.762984843572	8.397024880079
5	87197	29215.363121881097	5.618739182265
5	87222	29219.912546264459	3.367051676043
5	87227	29220.238963751981	2.477705396895
5	87267	29235.926439910502	10.721600524937
5	87278	29239.884913379995	14.184182898672
5	87286	29241.799077639521	14.916617089368
5	87300	29245.413307922754	17.463525357666
5	87308	29247.048191168654	18.189471583159
5	87315	29249.363252685559	16.668937815797
5	87320	29250.431679606684	15.643837592738
5	87338	29266.153480548654	26.48934989643
5	87348	29268.197582661254	26.46401593267
5	87355	29269.068746178096	26.62568656682
5	87360	29269.323053499079	22.788094221476
5	87365	29270.16870775493	14.918213699886
5	87377	29273.389795147483	17.789651098877
5	87383	29275.079293474959	17.214656881288
5	87388	29277.081628893281	17.669260872248
5	87395	29277.323335671497	16.435158831409
5	87400	29277.723805991723	5.994200284584
5	87421	29282.077410416051	2.610814973806
5	87451	29290.904561005514	8.417807543955
5	87460	29293.678482188113	10.154196287469
5	87465	29294.302901205994	8.32763896229
5	87474	29296.8267900571	8.321181366663
5	87479	29297.193705774712	4.159010199623
5	87506	29309.886244737334	10.919478708319
5	87511	29310.305248811486	9.244857082582
5	87518	29315.710783354266	9.626271863863
5	87554	29331.821837027852	6.954318232231
5	87559	29332.097192140286	6.948590235217
5	87587	29350.313526422101	10.786092297519
5	87595	29351.728154596971	10.347313704384
5	87600	29351.925028281598	8.179777536562
5	87620	29357.421013012384	2.053987641591
5	87639	29367.498048176112	5.946214136606
5	87644	29367.612815058479	5.952063480908
5	87682	29376.951848540194	7.502284239571
5	87694	29377.818189010535	5.591694173685
5	87708	29381.427653030552	7.258068996483
5	87713	29381.873382449	4.528440353782
5	87720	29382.570254134198	3.169947045627
5	87731	29383.677143542096	2.377393978068
5	87736	29383.952320401836	2.051632955044
5	87742	29384.1493197368	1.170333744853
5	87753	29386.804688809178	3.776449585451
5	87769	29388.498936577608	1.505497192764
5	87784	29394.661056755061	6.930535708452
5	87789	29394.727080057624	5.924639239878
5	87797	29400.017581476389	9.011476854008
5	87804	29400.575911061857	9.524572790877
5	87810	29401.656701858211	4.939923620652
5	87836	29406.604372931899	1.132280832775
5	87856	29411.623864504068	3.247464730398
5	87901	29426.76765690474	3.813945221238
5	87906	29426.936662404203	2.745845827715
5	87932	29440.85738814839	12.542561428846
5	87942	29445.143671406826	16.259981488891
5	87947	29449.32851002657	16.880325025198
5	87952	29449.670393348807	16.112908522759
5	87960	29454.377747509756	17.181510654378
5	87981	29462.485368718798	5.380465133441
5	87993	29467.730029529094	9.585775290391
5	87998	29468.031333421102	5.415553440071
5	88008	29471.263077075934	7.944965219871
5	88013	29471.607424719132	5.558393746933
5	88018	29472.260189592177	1.474219322774
5	88054	29486.237320814738	2.472537532883
5	88091	29502.573403724447	11.631343955535
5	88096	29502.578585516645	10.574853984247
5	88102	29504.026017904599	2.329687317235
5	88119	29506.325554730385	1.548652141345
5	88130	29509.371201687473	4.591861513087
5	88140	29513.751656499738	5.577348018412
5	88147	29514.09262213198	5.415040384724
5	88154	29515.80092659555	3.369738194092
5	88159	29517.486160984664	3.412980265388
5	88177	29519.059746350276	1.114792657547
5	88222	29529.687761457303	4.729937119166
5	88233	29536.375317491218	10.2530401923
5	88244	29540.491519844365	13.945837551027
5	88249	29540.496648097924	11.435452742894
5	88255	29540.537696916565	1.146099240377
5	88278	29548.784068948561	6.647236053959
5	88292	29553.01081163031	9.602102901901
5	88299	29554.595141398619	8.149752229534
5	88309	29557.951006481522	5.86626167154
5	88314	29559.796381015283	7.558080716135
5	88336	29566.783362772807	4.694396633995
5	88363	29572.719004790847	2.748889456054
5	88369	29573.059629290656	2.918122090553
5	88389	29579.565422906296	5.656500262693
5	88394	29579.96755068916	2.13669786021
5	88415	29584.332158047204	3.882448371485
5	88431	29592.105932428671	10.288697655243
5	88438	29594.703327648514	11.357089828145
5	88444	29595.323812303636	10.767289244535
5	88450	29597.798320490247	8.992267375288
5	88456	29600.40814101785	11.08890896236
5	88480	29609.940617431743	7.232612987135
5	88486	29613.387237293368	8.577182083259
5	88494	29617.096282018506	10.656388692027
5	88523	29623.25292415663	2.727553474079
5	88534	29627.922976988952	4.733823759621
5	88546	29629.216559234675	3.829906515193
5	88552	29629.400359464603	1.450779322809
5	88581	29635.773633111607	1.569527896436
5	88590	29637.68315540801	2.511934993211
5	88597	29638.764620717915	2.323760945874
5	88613	29648.099910862023	6.702580245418
5	88631	29654.533241993337	4.902467229863
5	88650	29660.882761685973	4.563030141532
5	88658	29662.673809292822	5.489728207376
5	88665	29664.730172268064	5.457679067657
5	88671	29665.372716745435	3.547213288701
5	88683	29666.72100756262	1.127341309466
5	88705	29671.502530429675	0.193835907348
5	88728	29678.996280009268	7.079896053592
5	88733	29679.611278299126	6.342826024727
5	88740	29682.491645829694	4.088453465341
5	88761	29694.062676173418	8.478463313138
5	88771	29695.685962252299	4.340905400892
5	88777	29698.873519044433	6.819765916126
5	88782	29699.136461341869	6.867285895085
5	88787	29699.217098290596	5.363335485125
5	88794	29700.048077358994	4.831645717888
5	88820	29713.899520171637	5.47777278208
5	88840	29726.131428243106	9.515646661305
5	88848	29728.376885039223	9.236565592839
5	88860	29730.220220221248	0.695877418169
5	88892	29738.607982562845	5.851366461376
5	88898	29739.367980191247	5.496222824462
5	88903	29739.79851265134	3.890079100727
5	88910	29743.832454589829	5.683681577779
5	88936	29752.81166343174	5.414887433549
5	88941	29753.103999071143	4.966343840016
5	88949	29754.517137998681	4.379161633541
5	88958	29758.410216060713	6.843738148361
5	88966	29758.856571563695	6.439328661247
5	88974	29760.7754488878	7.217611453538
5	88979	29761.068638572427	2.907981278986
5	88990	29765.332413465765	6.874869735501
5	88998	29765.911290984864	5.944136958517
5	89006	29772.466433414948	11.345003399801
5	89012	29774.459733764779	10.674158150211
5	89023	29777.879755510497	12.137093987395
5	89038	29783.151893429734	15.576385925439
5	89046	29788.1772515437	12.871560729511
5	89054	29791.462012125393	13.197815688683
5	89059	29791.649247076374	12.668796566559
5	89072	29798.732642882001	11.946264276178
5	89077	29799.324575179635	7.980645492514
5	89082	29800.58996155573	4.134647000162
5	89087	29802.233174103906	4.686768778461
5	89108	29808.984014713722	2.569760371437
5	89134	29815.939583732263	2.080634389648
5	89154	29822.238399445138	5.57562058883
5	89160	29823.357979023498	6.453012431861
5	89168	29825.259704794319	5.47823120974
5	89205	29833.033619783021	4.116171363491
5	89210	29835.293903363258	2.589255770641
5	89222	29839.756823570031	6.973973718707
5	89234	29842.922730673046	6.981741146731
5	89240	29845.896418604126	4.259400894082
5	89245	29846.385065620211	3.916563891561
5	89281	29853.748720591676	2.984238119316
5	89344	29887.12724665769	4.900051979514
5	89352	29889.100441160911	2.508271493906
5	89358	29889.726851491777	1.828184926677
5	89384	29899.276850699615	5.024562202259
5	89394	29902.808545464495	5.730690583967
5	89421	29915.712612483696	10.849621584047
5	89427	29918.423263674521	9.738725050154
5	89433	29921.902455704467	11.346967665694
5	89439	29922.890130440735	10.35586150267
5	89444	29923.091958781377	10.338017335282
5	89453	29927.659329710901	14.351788619102
5	89459	29928.958989812426	15.079920333012
5	89464	29929.715744735138	2.558736816537
5	89488	29938.501125860338	7.204595467036
5	89495	29940.161463449829	3.035894176761
5	89502	29942.87287276012	3.533355528557
5	89526	29954.070064502859	6.829392244381
5	89532	29956.999648195597	5.296662936285
5	89549	29963.804123959804	4.428571309004
5	89559	29967.564630079878	5.177216234635
5	89584	29971.984021550005	4.086399892907
5	89591	29972.685865996067	3.056664354079
5	89597	29973.054001044109	1.453620629631
5	89609	29975.924987531629	1.057379643146
5	89632	29980.782754750966	1.667467577841
5	89652	29990.618504382342	4.846785457682
5	89667	29996.459198959259	5.158622654021

