version 2
run Third-n5-12-20191016-14:54:00-5032
attr configname Third-n5
attr datetime 20191016-14:54:00
attr experiment Third-n5
attr inifile omnetpp.ini
attr iterationvars ""
attr iterationvarsf ""
attr measurement ""
attr network org.omnetpp.queueing.Pizza
attr processid 5032
attr repetition 12
attr replication ""
attr resultdir results
attr runnumber 12
attr seedset 12
param **.PS.maxInventoriedPS 5
param **.U1.interArrivalTime exponential(4s)
param **.U2.interArrivalTime exponential(6s)
param **.PS.serviceTimeForInventoryU1 exponential(1.4s)
param **.PS.serviceTimeForInventoryU2 exponential(1.4s)
param **.PS.serviceTimeDirectU1 exponential(1.8s)
param **.PS.serviceTimeDirectU2 exponential(1.8s)
param **.PS.probabilityProducing 0.8
param **.CS.serviceTimeU1 exponential(2.3s)
param **.CS.serviceTimeU2 exponential(2.3s)

vector 0 Pizza.EntryQueueU1 queueLength:vector ETV
attr interpolationmode sample-hold
attr title "queue length, vector"
vector 1 Pizza.CS queueLength:vector ETV
attr interpolationmode sample-hold
attr title "queue length, vector"
vector 2 Pizza.EntryQueueU2 queueLength:vector ETV
attr interpolationmode sample-hold
attr title "queue length, vector"
vector 3 Pizza.sink lifeTime:vector ETV
attr interpolationmode none
attr title "lifetime of arrived jobs, vector"
attr unit s
vector 4 Pizza.sink lifeTimeU2:vector ETV
attr interpolationmode none
attr title "lifetime of arrived jobs, vector"
attr unit s
0	0	0	0
0	16	6.058772836419	1
0	17	7.347231324444	0
0	23	7.459481980149	1
0	28	12.637321568175	2
0	29	14.581599610948	1
0	39	20.18568855005	0
0	52	24.183049439894	1
0	54	24.267166934598	2
0	55	25.452093816477	1
0	60	25.736390177025	0
0	81	30.730306669573	1
0	83	31.448574610622	2
0	86	32.398546921905	1
0	93	33.036000510858	2
0	95	33.795039616529	3
0	100	34.651892567762	2
0	106	35.911613518807	1
0	114	39.630080968699	2
0	116	41.08105079218	3
0	119	43.254792277179	4
0	123	45.461746971425	5
0	125	47.949884801084	6
0	127	48.033032451939	7
0	128	48.162188860326	6
0	136	49.90488342924	7
0	137	50.107339638448	6
0	143	51.130455332707	7
0	144	52.432986894933	6
0	151	53.253898100966	5
0	157	54.95763412593	4
0	163	55.072193843803	3
0	168	55.777473976539	2
0	174	56.306942632966	3
0	175	56.523842809044	2
0	181	58.084913244922	1
0	186	58.95099985407	0
0	210	65.931560920363	1
0	215	69.066603057065	2
0	216	69.249704810589	1
0	221	69.29142563478	0
0	230	73.444177084386	1
0	231	75.825921926666	0
0	265	83.769708065804	1
0	267	83.782881589935	2
0	268	83.874708362781	1
0	278	88.541505138984	2
0	279	89.680002592156	1
0	284	91.763116570217	0
0	305	98.394866474586	1
0	306	98.403795108685	0
0	322	100.500872174745	1
0	327	101.07966404631	0
0	345	104.965489299048	1
0	349	108.106466967542	0
0	373	115.088085862385	1
0	374	116.660616516691	0
0	380	116.718299499437	1
0	382	116.750441665671	2
0	385	117.092628799668	3
0	386	117.52530344866	2
0	393	117.728706767691	1
0	400	120.891025402384	2
0	403	122.028312126805	3
0	405	122.773140167196	4
0	407	125.690228796869	3
0	414	126.181044591513	4
0	416	129.848385717376	5
0	417	131.302408781356	4
0	426	132.988939241275	5
0	427	133.666193679529	4
0	434	135.282759530817	3
0	441	137.117238672324	4
0	443	137.826918079174	5
0	445	139.712234635142	6
0	449	140.751463480501	7
0	450	140.941453347669	6
0	455	141.909175610049	5
0	460	143.1842749196	4
0	465	143.215194691472	3
0	474	145.383132597162	2
0	480	146.631800256851	1
0	485	146.862582458284	0
0	509	150.014088489314	1
0	510	150.509071985081	0
0	525	160.420767860487	1
0	527	161.116387147004	2
0	530	164.662212964223	3
0	531	165.632883297271	2
0	539	166.634321829065	1
0	544	167.326296329548	0
0	584	182.383639574467	1
0	585	182.605852730905	0
0	604	186.21822099019	1
0	606	187.360629895835	2
0	607	189.48801459158	1
0	616	190.813688832617	2
0	619	191.504297599019	1
0	625	194.928030671622	0
0	632	196.790465752207	1
0	633	197.858326684997	0
0	657	204.582042249832	1
0	660	209.443830407343	0
0	667	210.080938593446	1
0	669	210.629687899045	2
0	670	211.828943402091	1
0	675	212.621611512883	0
0	721	223.886611225564	1
0	724	225.162881129242	0
0	755	236.342248102221	1
0	756	236.878575328798	0
0	790	239.884662564539	1
0	795	244.164720449469	0
0	801	245.384815784777	1
0	807	246.445764232186	2
0	810	247.018306112031	1
0	815	247.110959404069	0
0	824	250.16474031357	1
0	826	253.003728223943	2
0	828	253.791104380127	3
0	834	259.311871224297	2
0	839	259.715355493001	1
0	845	260.265685039757	2
0	847	260.321523301024	3
0	849	261.145539614033	4
0	851	261.45346646795	5
0	852	261.940823064974	4
0	858	262.500624968487	5
0	859	262.600540806471	4
0	864	262.956760005799	3
0	870	264.783034107224	2
0	877	265.1923078124	3
0	879	265.504113337996	2
0	887	266.728744558676	3
0	888	266.905272648918	2
0	897	272.503926575753	1
0	904	274.557416917775	2
0	907	274.98602624123	3
0	908	275.952343547699	2
0	914	276.283631566264	1
0	921	277.217404186268	2
0	922	277.674512267715	1
0	928	278.052167042299	0
0	936	278.913111543405	1
0	938	279.478144843835	0
0	959	282.279762608506	1
0	962	283.362609410556	0
0	987	289.664378022879	1
0	995	291.41178490781	0
0	1001	291.45226417707	1
0	1004	293.674968698739	0
0	1011	295.678641448455	1
0	1013	295.941511342427	2
0	1015	299.711073000929	1
0	1021	300.463279551648	0
0	1033	304.364869722527	1
0	1035	306.246633027133	2
0	1038	306.714102104137	1
0	1045	309.800875085765	0
0	1057	311.93757544647	1
0	1060	313.13051021949	0
0	1066	314.190050523781	1
0	1069	316.419938598677	2
0	1076	328.580694909944	1
0	1081	329.616089167551	0
0	1089	332.889702053173	1
0	1093	333.611943320585	0
0	1099	333.667127590644	1
0	1100	333.819330739569	0
0	1110	336.964041979306	1
0	1111	338.347360798221	0
0	1127	339.626442936806	1
0	1129	341.033728200713	0
0	1141	342.61913353831	1
0	1143	343.389748732806	2
0	1148	346.807153631673	3
0	1150	347.227677216025	4
0	1151	347.241865415674	3
0	1159	349.304658611114	4
0	1160	350.326575432932	3
0	1166	351.98045365777	2
0	1171	352.509651156672	1
0	1177	352.591878105849	2
0	1180	355.013630619028	1
0	1185	356.136529414167	0
0	1206	359.360364566953	1
0	1208	360.656146105458	0
0	1227	364.479048420141	1
0	1228	364.937061099903	0
0	1256	373.730899538227	1
0	1257	376.766518526874	0
0	1263	376.782315874507	1
0	1265	377.596956956921	0
0	1345	402.065687913172	1
0	1348	403.001275842021	2
0	1351	403.70608169792	3
0	1352	405.157311300691	2
0	1357	405.45535391893	1
0	1363	405.612518774319	2
0	1368	410.465664121145	1
0	1373	411.388382160289	0
0	1387	412.015035430085	1
0	1390	413.96173008458	2
0	1391	415.340661172734	1
0	1397	415.882393973328	2
0	1398	416.057773595449	1
0	1406	417.702045454988	2
0	1407	420.832911052381	1
0	1413	422.013722179018	0
0	1422	423.498619693572	1
0	1424	425.313364592423	2
0	1425	426.228922869073	1
0	1431	426.674747970724	2
0	1433	428.59197678995	1
0	1439	430.088196414173	0
0	1447	431.335653311202	1
0	1449	432.649568991399	0
0	1455	432.659987268207	1
0	1457	434.362179698238	2
0	1458	435.461577819433	1
0	1466	436.40522265547	2
0	1469	437.293686126103	3
0	1471	438.609689827267	2
0	1477	438.674912869052	3
0	1479	439.896978562818	2
0	1484	439.959448467412	1
0	1489	440.911999705407	0
0	1503	445.969572119635	1
0	1504	448.0964313109	0
0	1510	448.419805985545	1
0	1516	452.744809374361	0
0	1522	453.051402130459	1
0	1527	455.4221799858	0
0	1534	456.735345490799	1
0	1535	459.105347811877	0
0	1546	463.26741646183	1
0	1549	464.507619150235	0
0	1571	467.94880518896	1
0	1572	468.48605311189	0
0	1584	470.232029709649	1
0	1585	470.526236151885	0
0	1603	480.202262964876	1
0	1608	480.51076692414	2
0	1609	481.808925838429	1
0	1616	482.45987183608	2
0	1619	483.172762370345	3
0	1621	483.95291598	4
0	1624	484.201696675259	3
0	1632	489.430441371536	2
0	1638	490.933826864636	1
0	1645	491.71771947598	0
0	1652	494.449000728446	1
0	1655	497.0467795725	2
0	1657	497.28047691571	3
0	1658	497.902199949937	2
0	1663	498.607528135649	1
0	1668	499.98890581103	0
0	1675	500.256638597201	1
0	1680	504.948380720464	0
0	1709	511.352017302824	1
0	1711	513.380781390905	2
0	1713	513.974516912628	3
0	1714	514.014530669196	2
0	1720	516.353277867288	1
0	1726	520.009107742863	0
0	1733	521.909540017328	1
0	1735	522.92305820309	2
0	1736	523.501226010409	1
0	1743	525.095045317603	2
0	1744	529.059465521547	1
0	1750	530.67397209594	2
0	1755	531.058086582117	3
0	1756	533.058480727113	2
0	1761	533.370120474166	1
0	1768	535.968340726173	0
0	1774	536.851930426197	1
0	1779	537.576175674828	2
0	1781	542.297587671074	3
0	1783	542.62482215863	4
0	1786	542.968690041146	3
0	1792	543.504333919537	4
0	1795	545.057421190242	5
0	1796	545.375137128737	4
0	1803	547.554512841329	5
0	1804	547.65949092927	4
0	1809	547.791498504329	3
0	1817	548.988132614527	2
0	1823	550.238115561121	1
0	1828	551.132433049094	0
0	1842	552.982640595466	1
0	1843	553.491723706493	0
0	1865	558.974276750549	1
0	1866	559.171089265974	0
0	1872	559.671987834096	1
0	1876	562.434376877125	0
0	1898	568.152045405668	1
0	1900	569.088347650875	2
0	1901	569.582681195817	1
0	1906	570.21582983161	0
0	1924	578.71617179862	1
0	1926	578.716264962696	2
0	1928	579.161156683484	3
0	1930	580.106727925163	4
0	1932	582.299103216079	5
0	1933	583.281875659745	4
0	1939	583.61413486454	5
0	1940	584.977966467358	4
0	1946	587.600462008933	5
0	1949	589.320992813137	4
0	1956	592.133320692813	3
0	1964	595.867730262585	2
0	1969	596.02804441267	1
0	1977	597.246495749484	2
0	1979	599.336284041181	3
0	1981	600.238491668373	4
0	1983	601.840298864146	5
0	1985	606.197216586051	6
0	1986	608.43177120083	5
0	1992	609.978717546244	4
0	1999	610.484846951993	3
0	2010	614.492184935072	2
0	2016	617.182781520219	1
0	2023	618.539248333656	2
0	2026	620.280582059095	1
0	2033	621.29513152518	2
0	2034	622.249437695608	1
0	2041	623.870264523882	2
0	2045	627.697206352317	3
0	2046	628.171887216446	2
0	2057	630.645177044899	1
0	2063	632.33887087259	0
0	2081	634.795264861069	1
0	2085	636.838888929288	2
0	2089	638.16486600004	3
0	2093	638.478787062205	4
0	2094	640.586258687883	3
0	2100	643.258760246934	2
0	2105	643.363552393647	1
0	2111	643.990426085424	2
0	2113	645.00798674872	3
0	2117	647.337057562621	4
0	2120	648.009469394055	3
0	2129	649.799389153069	4
0	2131	649.968978903396	5
0	2133	651.780724266201	4
0	2138	652.544637247554	3
0	2145	652.983006352564	4
0	2146	653.007791994841	3
0	2151	653.692065667007	2
0	2158	655.393064597757	1
0	2164	655.472079742776	2
0	2170	657.316929742733	1
0	2179	660.531684981017	0
0	2185	660.562196902728	1
0	2191	663.042713166298	2
0	2192	663.82943001263	1
0	2198	665.503945351696	2
0	2199	665.512503356858	1
0	2204	666.185217849432	0
0	2210	666.32183273479	1
0	2211	666.815243320207	0
0	2224	668.847184126782	1
0	2228	670.723686575681	2
0	2229	671.776451716382	1
0	2236	672.90232927436	2
0	2238	673.239234788846	1
0	2245	673.935876616443	2
0	2247	674.13808175886	3
0	2249	674.871474400811	4
0	2250	675.526361207	3
0	2260	679.458894164907	4
0	2262	682.67109990274	5
0	2263	684.363796697692	4
0	2268	686.671046410501	3
0	2274	687.884286433634	2
0	2284	689.566346830208	3
0	2285	689.608674910216	2
0	2291	689.672849426532	3
0	2292	690.112509529195	2
0	2298	691.947008078157	1
0	2303	693.278147502859	0
0	2312	695.143057443655	1
0	2313	697.036579357735	0
0	2325	702.545196702421	1
0	2326	704.053386163496	0
0	2338	706.011413688663	1
0	2343	712.935606875993	0
0	2354	713.445350997128	1
0	2356	713.901546359339	2
0	2357	714.143820856926	1
0	2363	715.212925238311	0
0	2371	716.416026896128	1
0	2375	719.511332840144	0
0	2381	719.608830243801	1
0	2383	719.962567811767	2
0	2386	725.068324998807	3
0	2389	725.525416697896	2
0	2394	725.598322808928	1
0	2400	726.343630667152	0
0	2406	730.23844586934	1
0	2408	730.374458682085	2
0	2413	733.05596705614	1
0	2419	733.475199483713	2
0	2423	734.456524624938	3
0	2424	734.93189999627	2
0	2429	737.328110548114	1
0	2435	738.113780730908	2
0	2437	739.941224902001	1
0	2443	740.602103854033	2
0	2444	744.267038134972	1
0	2448	745.538012444057	2
0	2450	746.344211320513	3
0	2456	747.26097491699	4
0	2457	748.730920327875	3
0	2461	749.047150508004	4
0	2464	752.54436487349	3
0	2468	752.941457146683	4
0	2472	753.965443230468	5
0	2474	754.72575369618	6
0	2477	756.109886454965	5
0	2485	756.600533503282	6
0	2489	758.88329058476	5
0	2494	759.411065863229	4
0	2500	764.625079322219	3
0	2506	765.951988804594	2
0	2512	765.959323864369	3
0	2519	770.91719591417	4
0	2520	771.527102133279	3
0	2525	772.900123391399	2
0	2532	774.210439048551	3
0	2533	775.161559298299	2
0	2539	776.366979226801	3
0	2542	778.341534704468	2
0	2551	779.998371228664	3
0	2552	780.566772295031	2
0	2558	782.576306055213	3
0	2559	783.393803243136	2
0	2564	784.283044165496	1
0	2571	786.014310367492	2
0	2572	789.852479697484	1
0	2577	790.097838430642	0
0	2584	791.23903941437	1
0	2585	791.413006346073	0
0	2595	792.04425314895	1
0	2596	792.720674860824	0
0	2600	792.807543415941	1
0	2604	794.557807929727	2
0	2606	795.436834017574	3
0	2608	796.161667080612	4
0	2616	800.04615339117	5
0	2619	802.021181127443	4
0	2627	807.985340700379	5
0	2628	808.291478133937	4
0	2633	809.741346225627	3
0	2640	810.013037631598	4
0	2642	810.95428868612	5
0	2646	812.337272833073	4
0	2652	812.499719564539	5
0	2653	812.605025837458	4
0	2659	813.960154411297	3
0	2665	814.287798281593	2
0	2671	815.270027889525	3
0	2675	818.745709726193	2
0	2680	820.855591216758	1
0	2685	821.349536681569	0
0	2694	824.595162198452	1
0	2698	827.226585340646	0
0	2727	835.018405011878	1
0	2730	836.176345201943	0
0	2768	841.877858888768	1
0	2772	842.505588489165	2
0	2778	846.540721096874	1
0	2785	847.005234593084	2
0	2787	847.077542474722	1
0	2792	847.311663363834	0
0	2827	854.954988554146	1
0	2829	855.727567949099	2
0	2830	856.222142175485	1
0	2836	857.970845806191	0
0	2847	858.815949933706	1
0	2848	859.462130968931	0
0	2871	865.466734729722	1
0	2872	865.5579287901	0
0	2883	871.125197972315	1
0	2889	874.313638705435	2
0	2897	879.273523273531	3
0	2899	880.27988903506	4
0	2901	882.960584431952	5
0	2903	883.534674956743	6
0	2904	884.098263069612	5
0	2911	885.95673773416	4
0	2917	886.388447214377	5
0	2918	886.787203815192	4
0	2924	887.264939183953	3
0	2933	889.266029833769	2
0	2940	892.141501333421	3
0	2941	892.241644543318	2
0	2947	893.012253500155	3
0	2952	897.409572129741	2
0	2962	899.898996300089	1
0	2969	903.178815525277	2
0	2970	903.825896492081	1
0	2977	904.225537524881	0
0	3011	918.279359166787	1
0	3012	921.658862617014	0
0	3021	923.002390684441	1
0	3025	924.186878975083	2
0	3029	924.394174082113	3
0	3031	925.648146891848	2
0	3037	926.468233190463	3
0	3040	927.22419114359	4
0	3041	927.333931571418	3
0	3047	927.63042789464	2
0	3053	928.022065852638	3
0	3054	928.080511247171	2
0	3059	928.267316599553	1
0	3065	929.811144859199	0
0	3075	931.977775332535	1
0	3081	933.488915630994	0
0	3096	937.01935851775	1
0	3098	938.342750124867	2
0	3102	943.294311736269	3
0	3106	945.763255507448	4
0	3109	947.364698508915	3
0	3114	948.960903229623	2
0	3119	949.568203528443	1
0	3124	949.584956549018	0
0	3132	951.143302447692	1
0	3135	953.797272960578	2
0	3137	954.580252844357	1
0	3145	956.007811740669	2
0	3146	956.595097210709	1
0	3151	957.550544159151	0
0	3159	958.906622523905	1
0	3161	959.165383780493	2
0	3169	969.989614632222	1
0	3175	970.808285818281	0
0	3217	984.588459302829	1
0	3223	985.72566518324	2
0	3224	986.716079473325	1
0	3232	988.877782418843	0
0	3244	991.816633979919	1
0	3249	997.061578226868	0
0	3257	998.390861316749	1
0	3258	998.66827421508	0
0	3265	999.310903637112	1
0	3268	1000.331043098042	2
0	3269	1001.691694921838	1
0	3275	1002.500218594877	2
0	3278	1003.959125912603	3
0	3279	1006.905978129872	2
0	3284	1007.346930831841	1
0	3293	1012.100326202733	0
0	3314	1014.935296747201	1
0	3321	1021.030250683523	2
0	3322	1023.014932435678	1
0	3329	1025.08388664063	0
0	3336	1026.560153527593	1
0	3338	1026.659137424972	2
0	3341	1029.604769893029	1
0	3346	1030.166596185478	0
0	3354	1037.506653435517	1
0	3355	1040.629862848075	0
0	3363	1043.916601906708	1
0	3364	1045.32477319363	0
0	3371	1047.856500909094	1
0	3374	1051.619851273717	0
0	3380	1053.024618752613	1
0	3386	1057.197122948026	0
0	3435	1072.418488364282	1
0	3437	1073.720227973914	2
0	3442	1079.073565263144	1
0	3447	1079.196540396351	0
0	3465	1083.370550572401	1
0	3469	1084.570460222909	0
0	3479	1089.366813276532	1
0	3481	1089.975249293182	0
0	3487	1090.70870658925	1
0	3495	1099.04892287561	2
0	3496	1100.278198153468	1
0	3502	1100.652604053205	0
0	3529	1109.377684826618	1
0	3530	1109.918181912392	0
0	3544	1111.943521106471	1
0	3545	1111.991732968621	0
0	3562	1120.226387030086	1
0	3566	1124.475327229454	2
0	3568	1125.240688483583	3
0	3569	1125.910775966181	2
0	3574	1127.894790373777	1
0	3582	1131.284918394273	2
0	3583	1131.750590509199	1
0	3590	1133.516030927475	2
0	3592	1134.435132144227	3
0	3594	1136.283764323667	4
0	3595	1136.949216352715	3
0	3601	1137.774158086381	2
0	3607	1139.963425640055	1
0	3613	1140.52896778086	2
0	3615	1143.769925121001	1
0	3621	1145.505278100675	0
0	3685	1165.451842287869	1
0	3686	1166.137925284727	0
0	3702	1171.235081214303	1
0	3705	1172.087279754895	0
0	3712	1173.964042292119	1
0	3713	1174.442717672033	0
0	3719	1174.617554867381	1
0	3720	1174.700407820873	0
0	3731	1179.942730184778	1
0	3732	1181.080755064769	0
0	3740	1183.275451279864	1
0	3745	1186.047288554538	0
0	3773	1192.226923116694	1
0	3775	1193.628459116981	2
0	3776	1194.900124533123	1
0	3782	1194.972411268234	2
0	3785	1196.393651074357	1
0	3790	1196.41000862767	0
0	3811	1202.246007297412	1
0	3812	1202.916943783124	0
0	3818	1203.130636840889	1
0	3820	1203.134884409136	2
0	3822	1204.26524915282	1
0	3828	1204.550794721431	2
0	3830	1205.001385119272	1
0	3836	1205.317681257635	2
0	3837	1205.962262765637	1
0	3845	1206.645910451425	2
0	3846	1208.097895650953	1
0	3852	1212.419355512844	0
0	3871	1215.45958780572	1
0	3873	1217.780858857448	2
0	3876	1218.332688941831	1
0	3883	1219.078200962915	2
0	3885	1219.130194843616	3
0	3887	1220.54277894967	2
0	3893	1220.615716721176	3
0	3896	1221.270528991379	4
0	3897	1222.151595518263	3
0	3903	1225.857716739827	2
0	3909	1226.37511971317	3
0	3910	1226.808507661634	2
0	3918	1229.968493264491	1
0	3924	1230.685522447743	0
0	3930	1230.99307065427	1
0	3931	1231.362032023392	0
0	3937	1231.462682831186	1
0	3939	1233.169407779505	0
0	3963	1238.182883198032	1
0	3965	1240.82289181757	2
0	3966	1240.90702049356	1
0	3972	1241.245150043559	2
0	3975	1243.605797858704	1
0	3982	1245.6793495464	2
0	3985	1246.164329778242	3
0	3986	1246.943093959718	2
0	3992	1247.270893979196	3
0	3993	1249.035977827158	2
0	4001	1250.352105101181	3
0	4004	1253.420111903922	2
0	4011	1256.962048897767	3
0	4012	1256.988411105443	2
0	4018	1257.212560536338	3
0	4020	1257.609950839224	2
0	4025	1257.662988071661	1
0	4034	1259.783425306407	2
0	4035	1260.011058300675	1
0	4042	1263.529076883755	2
0	4043	1264.956030014415	1
0	4052	1265.962675291165	2
0	4053	1269.351912519602	1
0	4060	1272.43869116984	0
0	4072	1275.35024179244	1
0	4073	1275.391381360142	0
0	4079	1275.455274353905	1
0	4081	1276.565572921451	2
0	4085	1280.121118726657	1
0	4091	1281.225277352473	0
0	4100	1282.617056258605	1
0	4102	1282.786074128461	2
0	4104	1283.550243233826	3
0	4111	1287.193239461742	4
0	4115	1289.144417289092	5
0	4118	1291.069793745435	6
0	4119	1291.589320358482	5
0	4126	1292.575915914906	6
0	4128	1293.243767309713	5
0	4134	1293.73141984917	6
0	4137	1294.511835582034	5
0	4143	1297.300811765733	4
0	4152	1298.215588445069	5
0	4153	1301.099966335232	4
0	4159	1301.236361513492	3
0	4165	1303.286679548672	2
0	4171	1303.45116350858	3
0	4172	1303.883490363144	2
0	4177	1305.826288286378	1
0	4183	1307.336765895025	2
0	4185	1307.803243080383	3
0	4187	1308.813894226579	4
0	4188	1310.106589893249	3
0	4196	1312.13487620511	4
0	4202	1317.305570610016	3
0	4207	1317.402155678341	2
0	4214	1319.760012791655	1
0	4219	1321.955246358813	0
0	4233	1325.477631276085	1
0	4236	1332.983162361028	0
0	4248	1333.410550887934	1
0	4253	1335.631300004697	2
0	4255	1336.395844267231	1
0	4261	1337.169767330598	0
0	4267	1338.561325738177	1
0	4269	1340.923383230897	0
0	4275	1341.246534866371	1
0	4278	1342.758048487838	0
0	4305	1346.290363327715	1
0	4306	1346.767293023529	0
0	4318	1350.218135957924	1
0	4320	1351.623803845045	2
0	4321	1353.63593229762	1
0	4327	1353.724012873464	2
0	4328	1353.974725127616	1
0	4336	1354.95739073163	0
0	4369	1360.811477646196	1
0	4373	1363.044107886201	0
0	4384	1363.926626436308	1
0	4385	1364.459413213956	0
0	4395	1364.799431685557	1
0	4401	1367.793557533062	2
0	4403	1368.315025426254	1
0	4409	1368.718526023309	0
0	4422	1369.058826497577	1
0	4423	1369.927562748293	0
0	4434	1371.214970098293	1
0	4435	1372.193825723214	0
0	4454	1374.089761448704	1
0	4458	1377.882871534801	2
0	4461	1380.097811005066	1
0	4467	1381.048221914926	2
0	4468	1381.106893539551	1
0	4474	1381.709568847573	2
0	4476	1381.714046838722	3
0	4481	1382.842614174001	2
0	4488	1384.354004118294	3
0	4489	1384.903502465533	2
0	4498	1389.058318013731	1
0	4505	1389.995951192986	0
0	4519	1391.65560542818	1
0	4520	1392.459408575991	0
0	4529	1396.727918252549	1
0	4531	1397.126962864536	2
0	4534	1397.349528908975	1
0	4540	1397.430289033144	2
0	4542	1398.755439587693	1
0	4548	1399.231709352409	0
0	4560	1400.687992345295	1
0	4572	1404.820350040221	2
0	4577	1408.454397667196	1
0	4587	1411.756631753191	2
0	4588	1412.013555293582	1
0	4597	1413.337162172084	2
0	4601	1417.440185384149	3
0	4603	1420.621762359014	4
0	4605	1421.862738039217	5
0	4609	1424.556880365783	6
0	4610	1425.460561681048	5
0	4617	1425.983395754828	6
0	4621	1428.092200944061	5
0	4627	1430.988180051923	4
0	4633	1434.088063538554	3
0	4638	1434.692357234509	2
0	4644	1434.981102483609	3
0	4646	1435.711972697491	2
0	4652	1439.831474649478	1
0	4657	1440.26417145324	0
0	4679	1446.072818184343	1
0	4681	1446.705590737887	0
0	4696	1448.067247748373	1
0	4701	1450.172504165973	0
0	4707	1450.290878999937	1
0	4711	1451.994197921652	2
0	4713	1452.513576765975	1
0	4718	1452.696557374538	0
0	4726	1453.553216453453	1
0	4729	1456.516424270147	2
0	4730	1457.091462050392	1
0	4735	1457.6070842429	0
0	4747	1459.294820017595	1
0	4751	1461.839208604737	0
0	4757	1462.062185254844	1
0	4758	1463.006407950526	0
0	4773	1464.425900497689	1
0	4775	1466.434858070783	0
0	4789	1468.993224618714	1
0	4795	1474.874272363504	0
0	4809	1480.011876994451	1
0	4813	1482.037363153275	2
0	4816	1482.261685178484	3
0	4817	1483.156765665007	2
0	4822	1483.420073357565	1
0	4828	1486.215696813757	0
0	4845	1490.436422341826	1
0	4847	1491.119532523893	2
0	4853	1495.704081098788	3
0	4854	1497.391300932147	2
0	4861	1497.980024064711	3
0	4862	1499.100004410521	2
0	4869	1505.216424914278	1
0	4877	1505.393117860461	2
0	4879	1506.48582756844	3
0	4881	1508.808353871193	2
0	4886	1509.189638487487	1
0	4891	1509.778756057604	0
0	4898	1509.99311970403	1
0	4902	1511.83166071208	0
0	4915	1513.758725598543	1
0	4918	1514.639180079679	0
0	4948	1518.8533471382	1
0	4952	1520.005781778668	2
0	4954	1520.097522588141	3
0	4955	1520.796636127774	2
0	4961	1523.234744125369	1
0	4966	1523.751090025966	0
0	4979	1526.508096853277	1
0	4981	1530.495925091412	2
0	4982	1531.324904444969	1
0	4990	1536.582327560065	0
0	5012	1543.571192142011	1
0	5015	1544.400251865188	0
0	5045	1556.039769553728	1
0	5051	1561.477010374179	0
0	5062	1564.786344525853	1
0	5065	1566.698500937392	0
0	5073	1568.930051991686	1
0	5076	1572.569123921795	2
0	5077	1573.558354325393	1
0	5083	1575.235171228846	0
0	5124	1586.21922607167	1
0	5126	1587.916396025353	2
0	5130	1591.097751615597	3
0	5131	1591.112902601998	2
0	5136	1591.907549908083	1
0	5141	1592.131600551076	0
0	5168	1599.058617396808	1
0	5169	1600.280046448829	0
0	5205	1611.50028244794	1
0	5211	1616.687445866058	0
0	5220	1617.231854365496	1
0	5229	1621.998742265134	0
0	5236	1622.110299791445	1
0	5238	1626.509440178732	2
0	5239	1628.610084487046	1
0	5244	1628.86646391	0
0	5251	1630.196549616818	1
0	5256	1633.629083592704	2
0	5262	1635.638997354022	3
0	5264	1635.946956163895	4
0	5265	1636.496858119046	3
0	5272	1636.976418927843	4
0	5273	1637.101080548381	3
0	5279	1638.180532432461	4
0	5281	1638.514987568726	5
0	5282	1638.643442769257	4
0	5290	1640.161533363871	5
0	5293	1640.766755037011	4
0	5298	1640.800291985705	3
0	5303	1641.209931576921	2
0	5308	1641.742295775032	1
0	5318	1649.034801794433	0
0	5336	1653.351008393903	1
0	5337	1656.060240045646	0
0	5345	1658.579360881734	1
0	5346	1659.351048995466	0
0	5361	1661.624752342456	1
0	5362	1662.155502433386	0
0	5400	1670.522837694857	1
0	5404	1672.037107708095	2
0	5406	1674.643847083999	3
0	5408	1675.993555616924	4
0	5410	1680.042185822403	5
0	5412	1680.967322590547	6
0	5415	1681.407209815099	5
0	5420	1682.104867859926	4
0	5427	1684.280055259702	5
0	5428	1684.656749225703	4
0	5433	1686.466056392346	3
0	5440	1688.377026025001	2
0	5445	1689.307213377702	1
0	5451	1693.352384339867	2
0	5453	1694.065749691154	1
0	5463	1697.627017068838	0
0	5469	1697.752548569249	1
0	5470	1698.411428221996	0
0	5479	1699.332758887584	1
0	5484	1700.911220266725	2
0	5485	1701.314304325194	1
0	5492	1704.947762686615	2
0	5495	1706.979182125516	3
0	5496	1707.621819812655	2
0	5502	1708.458853358041	1
0	5512	1715.494896249207	2
0	5517	1716.368894111576	3
0	5518	1716.533570653042	2
0	5524	1719.800792055506	1
0	5533	1726.433778973519	0
0	5554	1738.585445474486	1
0	5556	1739.204850358382	2
0	5557	1739.313093992721	1
0	5564	1739.840607876711	0
0	5576	1742.554089911196	1
0	5577	1744.126230131728	0
0	5586	1746.932415747156	1
0	5592	1748.390856444283	0
0	5630	1767.353098099516	1
0	5632	1771.149147772236	2
0	5633	1772.258172372487	1
0	5640	1772.489028578708	2
0	5641	1772.834902599487	1
0	5647	1773.806855293138	0
0	5657	1780.530839206734	1
0	5661	1781.200680407154	2
0	5664	1781.684738439133	1
0	5670	1782.897283210782	2
0	5672	1783.172945107085	3
0	5674	1788.756785346126	2
0	5679	1789.051111372292	1
0	5685	1793.430062232558	0
0	5741	1808.451723925953	1
0	5743	1808.912060984157	2
0	5744	1809.132026462611	1
0	5750	1810.847206367752	0
0	5756	1811.363059497374	1
0	5757	1811.414330718064	0
0	5766	1812.164377622067	1
0	5768	1812.655834046479	2
0	5772	1813.534912748187	3
0	5782	1820.343458204627	2
0	5788	1820.982669208659	3
0	5789	1821.4825527409	2
0	5795	1822.000421028516	3
0	5797	1822.714882501826	2
0	5803	1822.929557046969	1
0	5810	1823.419773233933	2
0	5811	1823.532551928232	1
0	5817	1825.662044149562	0
0	5823	1826.031907985206	1
0	5825	1829.697769432512	0
0	5848	1832.030655054456	1
0	5850	1832.467735718868	0
0	5856	1832.634963461594	1
0	5860	1834.267355674017	2
0	5863	1836.31877148389	1
0	5869	1836.327057547208	2
0	5870	1837.138572533583	1
0	5878	1840.351440186985	0
0	5891	1841.325243797386	1
0	5893	1841.369686971801	2
0	5896	1842.292018364353	3
0	5901	1844.338241995519	4
0	5902	1847.201922055469	3
0	5909	1849.527902898862	4
0	5913	1850.441905205803	5
0	5915	1851.48793981141	6
0	5916	1851.945416125085	5
0	5922	1852.509631142475	6
0	5924	1855.372089577818	5
0	5929	1855.616340553497	4
0	5935	1855.886260429342	5
0	5938	1857.312554431617	4
0	5944	1857.956394088915	5
0	5945	1858.669899949852	4
0	5953	1861.018216414737	3
0	5958	1861.21661196099	2
0	5964	1861.360704676417	3
0	5969	1866.013696911485	4
0	5971	1866.531884129938	5
0	5972	1866.535554374008	4
0	5981	1870.785826857832	3
0	5986	1871.133441123486	2
0	5992	1872.091575331427	1
0	5998	1874.412898865895	0
0	6018	1879.352996439135	1
0	6020	1880.062565937549	2
0	6022	1881.535252321953	3
0	6023	1883.609221938759	2
0	6029	1884.032871457484	3
0	6030	1884.366749696401	2
0	6040	1887.197958350617	3
0	6041	1888.142178649858	2
0	6046	1888.764884751425	1
0	6051	1889.592972628058	0
0	6057	1891.092869378203	1
0	6059	1891.462669347137	2
0	6061	1892.843420297561	3
0	6062	1893.745600356872	2
0	6067	1893.889299048124	1
0	6073	1894.01934582787	2
0	6077	1895.429928336272	1
0	6083	1895.660309379063	2
0	6087	1896.48172796357	1
0	6094	1898.130806716816	2
0	6097	1900.409109561513	1
0	6102	1900.669672848806	0
0	6139	1906.551951168784	1
0	6140	1908.634181272232	0
0	6189	1921.239813837497	1
0	6191	1923.339361535706	2
0	6193	1924.17847402158	3
0	6194	1924.225060175339	2
0	6200	1925.791592680081	1
0	6205	1926.502123516587	0
0	6211	1926.812677180586	1
0	6215	1928.354507379194	2
0	6216	1928.785368966811	1
0	6222	1929.536899954426	0
0	6233	1930.227911277445	1
0	6234	1930.387200058265	0
0	6240	1931.206432266773	1
0	6242	1931.92319945472	0
0	6253	1934.544982728284	1
0	6257	1935.362397682663	2
0	6259	1935.940060450079	3
0	6264	1937.295399913091	4
0	6271	1941.567774080895	3
0	6277	1941.841379649368	2
0	6282	1941.893366906753	1
0	6295	1944.382636325357	2
0	6297	1945.229676007932	1
0	6304	1946.688376894887	0
0	6311	1948.590804315458	1
0	6313	1949.043055916982	2
0	6314	1949.242883980306	1
0	6321	1950.625159186114	2
0	6322	1954.409391712636	1
0	6329	1958.218030929843	2
0	6330	1959.352170483239	1
0	6335	1959.586735246969	0
0	6341	1959.913327752814	1
0	6345	1962.083642526338	0
0	6367	1966.246214051561	1
0	6369	1967.138731502783	0
0	6381	1967.863658075358	1
0	6384	1970.723103502322	0
0	6407	1975.043386144092	1
0	6408	1976.523299215186	0
0	6417	1978.061964069682	1
0	6421	1980.273832634489	0
0	6430	1981.151829333849	1
0	6435	1982.376486819188	2
0	6437	1984.377862336123	3
0	6438	1988.1275090152	2
0	6445	1991.478998381491	1
0	6451	1991.726317905402	2
0	6453	1991.767983464648	3
0	6455	1993.589776184421	2
0	6461	1993.873385987873	1
0	6467	1995.042962550564	2
0	6470	1995.659244673683	3
0	6471	1995.803230424081	2
0	6478	1995.934826861412	1
0	6486	1997.610027612054	0
0	6498	2001.140352528037	1
0	6503	2004.564408530711	0
0	6510	2006.210943954124	1
0	6511	2007.239430320226	0
0	6518	2008.307531739798	1
0	6522	2013.41271256646	2
0	6523	2014.009164227084	1
0	6529	2015.520173002405	0
0	6560	2021.927653068099	1
0	6563	2023.892143504228	0
0	6582	2026.731680578928	1
0	6585	2028.024695603821	2
0	6589	2032.133189793127	3
0	6591	2034.302047708508	4
0	6593	2034.406126922115	5
0	6595	2034.755729924922	6
0	6596	2035.10942557741	5
0	6605	2037.856502150979	6
0	6607	2039.745207505561	7
0	6609	2041.436778128867	8
0	6612	2043.108048897308	7
0	6618	2043.231133932053	8
0	6620	2043.714316752009	9
0	6626	2048.885692294687	10
0	6628	2049.382562723063	11
0	6629	2050.315943494769	10
0	6634	2053.982077375085	9
0	6642	2057.65066820308	10
0	6643	2058.1803966696	9
0	6649	2058.346038684185	10
0	6651	2060.656734780013	9
0	6657	2061.125625074102	10
0	6659	2061.674089146007	9
0	6665	2061.921530395547	8
0	6670	2062.418787172567	7
0	6675	2063.951998545788	6
0	6680	2064.253122945289	5
0	6689	2065.710754346988	6
0	6693	2066.747072726938	7
0	6696	2069.321622715576	6
0	6703	2069.720524027925	7
0	6705	2070.105004872669	8
0	6708	2071.07925851421	7
0	6715	2073.246992212	8
0	6717	2074.389677295318	9
0	6719	2077.154849963186	10
0	6721	2078.940370871237	11
0	6723	2080.55906334647	12
0	6724	2085.764216303812	11
0	6731	2086.431175577049	12
0	6732	2088.325527517613	11
0	6737	2089.261127701024	10
0	6743	2092.117138485586	9
0	6749	2093.9799345972	8
0	6759	2096.214528325814	9
0	6760	2101.541518748578	8
0	6765	2102.386196353397	7
0	6770	2103.140475163902	6
0	6776	2103.497997123277	7
0	6778	2103.540848315394	8
0	6784	2108.468456283849	9
0	6791	2114.509849554725	10
0	6792	2114.525298544414	9
0	6797	2114.910093199237	8
0	6806	2116.782446015554	7
0	6814	2118.046124422383	6
0	6822	2119.49502142777	5
0	6830	2123.516180113199	6
0	6834	2126.936481252178	7
0	6835	2127.037383588912	6
0	6842	2129.638603347203	7
0	6843	2129.728869206143	6
0	6849	2130.515170110323	7
0	6850	2130.599862033645	6
0	6855	2131.285594552597	5
0	6862	2131.701174880134	6
0	6863	2131.781008867422	5
0	6871	2132.442240717824	6
0	6872	2135.07450685994	5
0	6877	2135.881359726413	4
0	6884	2137.204243523484	5
0	6886	2138.439658548711	6
0	6892	2139.739879682208	7
0	6893	2141.919966230436	6
0	6898	2141.970911551804	5
0	6904	2142.070882038814	6
0	6905	2142.094070573953	5
0	6910	2142.461998508351	4
0	6918	2143.399929872037	5
0	6919	2143.513916642779	4
0	6924	2144.008204458183	3
0	6932	2144.451120152175	4
0	6934	2144.679217564166	5
0	6935	2145.436778618369	4
0	6942	2146.140909371532	3
0	6950	2147.514852862876	2
0	6958	2148.736805727527	1
0	6966	2149.625366058899	2
0	6967	2150.626223954171	1
0	6975	2154.745771577551	2
0	6976	2154.815817333427	1
0	6982	2155.32474795348	0
0	6991	2156.374895525	1
0	6993	2159.393633743165	0
0	6999	2160.019158579896	1
0	7001	2160.204013263923	2
0	7005	2162.612677219174	3
0	7006	2163.287673345166	2
0	7012	2163.723049694044	1
0	7020	2165.397503142395	2
0	7021	2165.711061757454	1
0	7027	2166.93967738763	0
0	7033	2168.909222977908	1
0	7036	2170.115276793157	0
0	7051	2173.857076316109	1
0	7053	2174.520505704981	2
0	7055	2174.675631953402	3
0	7056	2175.825956935908	2
0	7065	2179.342632921494	3
0	7066	2179.674285602969	2
0	7072	2179.888176422737	3
0	7074	2181.169104235909	2
0	7079	2181.946010770621	1
0	7086	2183.888223990978	2
0	7087	2184.805598420447	1
0	7095	2185.997403716396	2
0	7097	2187.279710286281	3
0	7098	2187.901895699865	2
0	7107	2190.863040908889	3
0	7108	2191.107079887913	2
0	7114	2191.327520859537	1
0	7120	2191.611127166387	0
0	7129	2192.301900906248	1
0	7130	2193.477442491898	0
0	7150	2197.66559024725	1
0	7151	2199.261221060746	0
0	7169	2203.315429795449	1
0	7171	2204.077926630482	2
0	7172	2204.891974741412	1
0	7180	2207.890756462783	0
0	7192	2208.83695396709	1
0	7196	2210.003740211535	2
0	7200	2213.310744414741	3
0	7205	2219.986941706881	2
0	7211	2221.611952812507	1
0	7216	2222.656378974008	0
0	7244	2236.857907633538	1
0	7247	2240.129269681886	0
0	7257	2241.705148004249	1
0	7263	2245.402998524008	2
0	7264	2246.4805931329	1
0	7269	2246.702894997944	0
0	7283	2249.292056828197	1
0	7285	2251.633934804381	2
0	7289	2253.951515482593	1
0	7295	2255.127036284856	0
0	7308	2260.98431450259	1
0	7309	2262.008640449346	0
0	7326	2268.258424296037	1
0	7328	2268.272616198151	2
0	7329	2269.558054245932	1
0	7335	2272.018643234026	0
0	7345	2274.515436977973	1
0	7349	2277.138439700395	2
0	7351	2282.355365336666	3
0	7352	2282.543949594961	2
0	7358	2282.862593005483	1
0	7363	2282.948026707748	0
0	7386	2285.912394901358	1
0	7389	2288.513223237943	0
0	7396	2290.20355014779	1
0	7399	2293.691489529299	0
0	7416	2296.429040891764	1
0	7419	2296.448507353757	0
0	7428	2297.940011922579	1
0	7429	2299.388975956443	0
0	7441	2303.452889934846	1
0	7444	2307.630259525927	0
0	7468	2317.130393931142	1
0	7469	2317.138754519928	0
0	7486	2320.722802014424	1
0	7492	2321.75829894207	2
0	7495	2324.751900964626	1
0	7502	2326.372553727615	2
0	7505	2331.180449390819	1
0	7516	2336.794473795039	2
0	7517	2337.580371358537	1
0	7522	2337.607909089042	0
0	7537	2342.058829469669	1
0	7540	2343.210860666435	0
0	7554	2345.683285888185	1
0	7556	2346.635229580348	2
0	7557	2347.64615495958	1
0	7565	2350.353153096192	2
0	7566	2351.075106636326	1
0	7571	2351.3186241357	0
0	7614	2365.52549331039	1
0	7615	2365.739293781619	0
0	7621	2366.132896254577	1
0	7624	2367.14384019493	0
0	7635	2368.103176975713	1
0	7638	2369.382464354604	2
0	7642	2371.667333005402	1
0	7649	2375.009264712322	0
0	7656	2375.277071207281	1
0	7657	2375.863436141533	0
0	7715	2394.316833668686	1
0	7719	2402.698591980942	0
0	7725	2404.263822318878	1
0	7726	2404.42125410946	0
0	7732	2404.858006073418	1
0	7734	2405.529810547373	0
0	7753	2409.120626500952	1
0	7755	2409.21275565185	2
0	7756	2409.391808312314	1
0	7762	2409.557073167465	0
0	7768	2409.595067950548	1
0	7773	2413.242719901072	0
0	7782	2414.451459545701	1
0	7785	2417.229020322613	0
0	7809	2421.027825299177	1
0	7810	2421.347828126712	0
0	7828	2425.99836434981	1
0	7833	2428.940129266585	2
0	7836	2432.359157674993	1
0	7841	2432.408059162285	0
0	7861	2434.858216970313	1
0	7862	2438.467752114503	0
0	7877	2443.564535466813	1
0	7882	2447.246134389257	0
0	7890	2447.684533351393	1
0	7892	2448.623636992029	0
0	7898	2449.748513513413	1
0	7900	2449.819707199092	2
0	7902	2453.55371411642	1
0	7907	2454.211007209871	0
0	7918	2455.368737614352	1
0	7922	2456.98314605666	2
0	7925	2457.495389802391	1
0	7932	2459.445656356805	0
0	7938	2459.789238530942	1
0	7940	2462.896897099411	2
0	7948	2465.899276712416	1
0	7956	2468.748010626753	2
0	7960	2471.876409634365	3
0	7961	2472.151288455319	2
0	7966	2472.958652822205	1
0	7971	2473.227949405016	0
0	7980	2473.939082524439	1
0	7982	2474.623227188229	2
0	7984	2475.686243971827	3
0	7987	2478.126745094513	2
0	7992	2479.030639386414	1
0	8001	2482.158105180756	2
0	8002	2482.308709090682	1
0	8007	2483.473237285307	0
0	8027	2487.279772105552	1
0	8029	2488.268084692841	2
0	8033	2491.042982856382	3
0	8040	2495.436281339559	2
0	8046	2496.483852199067	1
0	8051	2496.901475052136	0
0	8061	2499.001612603064	1
0	8066	2502.729046946633	0
0	8085	2507.041705033455	1
0	8086	2507.202235709862	0
0	8100	2511.052263826	1
0	8101	2513.370454985644	0
0	8118	2517.069902722547	1
0	8121	2517.425123325807	0
0	8128	2518.799314569371	1
0	8129	2519.760308371452	0
0	8135	2519.783827463134	1
0	8136	2520.918010840819	0
0	8144	2523.511565190631	1
0	8145	2523.995993996362	0
0	8151	2524.55749983284	1
0	8152	2524.785826382684	0
0	8164	2526.56086867339	1
0	8168	2527.02225302622	2
0	8170	2527.625820007908	3
0	8171	2527.937353955893	2
0	8178	2528.788213862363	3
0	8181	2530.526805156327	2
0	8186	2532.494661887239	1
0	8198	2534.945070970241	2
0	8199	2535.422219927058	1
0	8204	2536.018884277601	0
0	8218	2538.323544001849	1
0	8220	2539.603911341187	0
0	8227	2541.84521774267	1
0	8228	2544.261635359134	0
0	8234	2544.498406184559	1
0	8236	2544.898196563302	2
0	8237	2545.145434179528	1
0	8242	2547.11131536579	0
0	8249	2548.60637900513	1
0	8252	2550.310176248966	2
0	8256	2552.389079537152	3
0	8262	2553.312009467237	4
0	8264	2555.284375567488	5
0	8265	2556.598833576082	4
0	8271	2557.852717668669	3
0	8276	2558.269804864668	2
0	8284	2561.514977209339	3
0	8287	2563.573256546353	2
0	8294	2568.330864966337	1
0	8302	2569.032236073836	2
0	8303	2570.174312133019	1
0	8309	2570.992916846162	2
0	8310	2571.712219096305	1
0	8314	2574.545591587816	2
0	8316	2574.58267598583	3
0	8318	2574.668234186637	4
0	8327	2578.489719487662	5
0	8328	2579.800261704237	4
0	8334	2580.316052248268	3
0	8341	2581.853250574064	4
0	8343	2582.025606460756	5
0	8346	2583.105922571213	4
0	8352	2583.444149088197	3
0	8359	2586.09159875614	2
0	8365	2588.769595891166	1
0	8370	2589.079637547538	0
0	8388	2592.45853116366	1
0	8391	2593.79552744258	0
0	8397	2594.114700787922	1
0	8403	2596.053745239049	2
0	8406	2598.137254610314	3
0	8407	2598.422498812703	2
0	8412	2598.670868398237	1
0	8424	2604.290643426248	2
0	8428	2605.943310712197	3
0	8429	2607.661053782007	2
0	8434	2607.772289515865	1
0	8442	2609.054579441309	2
0	8447	2612.494400304552	1
0	8457	2614.650641242504	2
0	8458	2615.926542547449	1
0	8463	2616.519441499437	0
0	8469	2616.699240670553	1
0	8472	2617.335440686374	0
0	8481	2618.991180785349	1
0	8482	2619.634455958047	0
0	8489	2622.563917598024	1
0	8492	2623.474431490482	0
0	8521	2631.905559842179	1
0	8522	2633.411268233183	0
0	8544	2638.971255986284	1
0	8546	2640.547150155049	2
0	8548	2641.869793556768	3
0	8549	2642.221092705972	2
0	8555	2642.305689812156	3
0	8556	2642.439967688304	2
0	8563	2644.899638093716	1
0	8569	2645.356205717904	2
0	8574	2648.583472302123	3
0	8578	2650.494608770026	4
0	8579	2653.313967124127	3
0	8586	2654.842525798203	4
0	8587	2655.167533195786	3
0	8594	2656.201062455696	2
0	8601	2658.568962950097	1
0	8606	2659.931903633045	0
0	8634	2670.24540311775	1
0	8636	2670.873826811363	2
0	8638	2670.985033556732	3
0	8643	2673.191473065492	4
0	8645	2673.316571200315	5
0	8648	2675.175311430855	4
0	8656	2676.594562584591	5
0	8657	2677.52304658603	4
0	8663	2678.361475720919	3
0	8668	2678.959414032813	2
0	8674	2679.336124725404	1
0	8679	2679.652286820545	0
0	8705	2684.706079081792	1
0	8710	2685.216439178677	0
0	8722	2689.463648683914	1
0	8726	2691.092303446429	2
0	8731	2691.925495735194	1
0	8737	2692.745363529652	0
0	8759	2702.06968018902	1
0	8761	2702.268370700277	2
0	8763	2702.308828597459	3
0	8764	2702.499015460202	2
0	8773	2704.016761532842	3
0	8774	2704.191731897222	2
0	8782	2705.830038412627	3
0	8789	2710.237174533047	4
0	8790	2710.644341205568	3
0	8795	2710.822169878823	2
0	8802	2712.28690030775	3
0	8804	2712.725938778172	4
0	8805	2713.310986666388	3
0	8812	2714.40889488941	4
0	8815	2715.662365026413	5
0	8816	2718.675737838649	4
0	8822	2719.353243873045	5
0	8824	2719.513898791367	6
0	8828	2725.381173774871	5
0	8834	2727.054695378355	6
0	8837	2728.327664439613	7
0	8838	2728.390113343093	6
0	8845	2729.100427329179	7
0	8846	2729.481170900119	6
0	8853	2729.949748621826	7
0	8857	2734.765287033247	6
0	8864	2736.062198511426	5
0	8871	2736.345220059884	6
0	8875	2742.132784115863	5
0	8884	2744.53264240324	6
0	8885	2745.108155796011	5
0	8891	2747.45513625557	4
0	8899	2752.871090697046	5
0	8900	2753.398628189895	4
0	8908	2755.441419894279	3
0	8914	2755.965292590544	2
0	8919	2756.642227623718	1
0	8924	2758.341957806615	0
0	8945	2767.378268823682	1
0	8946	2767.727369835716	0
0	8964	2773.009014047305	1
0	8965	2774.118550510176	0
0	8974	2775.045488865773	1
0	8978	2775.55095358311	0
0	8984	2777.703762327017	1
0	8986	2777.947425454008	0
0	9009	2784.983807910978	1
0	9011	2785.764504745881	2
0	9013	2787.303950139849	3
0	9014	2788.118625248671	2
0	9021	2788.331933093282	1
0	9026	2789.209475884292	0
0	9043	2792.827741100908	1
0	9046	2793.561351578532	0
0	9065	2798.996197158538	1
0	9066	2799.148879967973	0
0	9094	2807.200031819849	1
0	9098	2809.214741036491	2
0	9101	2810.556456044248	1
0	9107	2811.235690302576	0
0	9130	2818.361961019099	1
0	9138	2826.561195424023	0
0	9147	2827.357421019723	1
0	9151	2828.668256748401	0
0	9168	2831.046381627333	1
0	9178	2839.950389190855	2
0	9180	2840.177742938925	3
0	9182	2842.745786736848	4
0	9187	2848.269654657255	3
0	9193	2848.679639069002	4
0	9194	2848.873367605101	3
0	9202	2852.936120351624	4
0	9204	2854.178435888631	5
0	9207	2856.447596022033	4
0	9215	2860.748290817025	3
0	9221	2862.215799616302	2
0	9227	2864.037773341064	1
0	9233	2865.592982325024	2
0	9236	2866.352904041409	1
0	9246	2869.714256304728	2
0	9250	2870.929331488266	1
0	9255	2871.574385126	0
0	9274	2876.144277452862	1
0	9275	2876.436216201101	0
0	9307	2884.46699474721	1
0	9311	2888.018995518251	0
0	9325	2892.640114862757	1
0	9326	2892.727047131676	0
0	9357	2899.616949879695	1
0	9361	2900.736974210017	2
0	9362	2901.512033776862	1
0	9368	2902.172847173176	0
0	9383	2903.635946747661	1
0	9387	2904.329553787681	2
0	9388	2904.81587830999	1
0	9394	2907.668251032557	0
0	9410	2912.623840367945	1
0	9413	2919.327173992136	0
0	9442	2937.30050844748	1
0	9445	2938.864363810233	0
0	9472	2943.074637269348	1
0	9473	2943.407175175919	0
0	9480	2944.931183055552	1
0	9482	2945.022022040859	2
0	9483	2946.478201469498	1
0	9489	2947.824469074635	0
0	9503	2951.071967053258	1
0	9507	2952.604843431223	0
0	9529	2962.579312581876	1
0	9533	2964.314613676915	2
0	9534	2964.615958132578	1
0	9540	2964.888288220618	2
0	9541	2965.06356577943	1
0	9551	2967.077064230241	2
0	9552	2968.930986312154	1
0	9557	2969.293608259228	0
0	9567	2972.146610882259	1
0	9569	2972.248508534128	2
0	9570	2972.848087967584	1
0	9575	2974.224381184217	0
0	9588	2977.194226820358	1
0	9591	2978.695113940016	0
0	9608	2986.407693071424	1
0	9612	2986.766362651016	2
0	9615	2987.411635081349	1
0	9626	2998.359597380495	2
0	9629	3000.006804781891	1
0	9635	3000.620775223197	2
0	9637	3001.200687315828	1
0	9642	3001.858909165879	0
0	9651	3004.838969756427	1
0	9653	3006.66558234077	2
0	9660	3008.938369499266	1
0	9665	3009.582961339546	0
0	9671	3009.618043174967	1
0	9672	3010.340781900047	0
0	9678	3010.422901978739	1
0	9682	3013.182679132439	0
0	9688	3013.220223667568	1
0	9690	3013.253514761831	2
0	9691	3013.341225043985	1
0	9696	3015.526470559565	0
0	9712	3018.929243889922	1
0	9718	3019.565749261109	0
0	9724	3019.678827218407	1
0	9728	3020.388973687505	0
0	9738	3025.924228529291	1
0	9739	3025.931009067049	0
0	9774	3035.278202036073	1
0	9781	3039.601386829351	0
0	9787	3039.681405405434	1
0	9790	3040.978571434834	2
0	9791	3043.357948402413	1
0	9797	3043.941837704367	2
0	9798	3043.95404945343	1
0	9803	3044.731348298306	0
0	9817	3045.761293756439	1
0	9821	3047.240856880449	0
0	9852	3056.192066400274	1
0	9854	3057.809566531013	2
0	9856	3059.314691511406	3
0	9860	3062.637347443427	4
0	9862	3063.385723663767	3
0	9868	3065.727241427128	2
0	9874	3066.566970207584	1
0	9882	3069.605349165769	0
0	9889	3070.111563237781	1
0	9892	3071.074868822963	0
0	9915	3080.710758131007	1
0	9916	3082.037620620934	0
0	9927	3085.065349624066	1
0	9930	3086.936983059658	2
0	9931	3087.232939016968	1
0	9939	3093.75664732112	2
0	9940	3093.913568399298	1
0	9949	3098.049756131095	0
0	9961	3101.5435933507	1
0	9962	3102.346953196906	0
0	9978	3106.017572836213	1
0	9979	3108.802627609385	0
0	9990	3109.82209876112	1
0	9992	3111.035318255555	0
0	10004	3114.030907160264	1
0	10007	3117.206549585237	2
0	10009	3117.799737378261	3
0	10010	3117.892984207621	2
0	10015	3118.361420518978	1
0	10020	3118.405676283445	0
0	10030	3124.425251179283	1
0	10032	3126.818456625837	0
0	10047	3129.880362321169	1
0	10050	3131.684244346294	0
0	10061	3133.519068549054	1
0	10070	3137.350011423194	2
0	10072	3137.527427276378	3
0	10073	3138.097949947654	2
0	10082	3140.254864706468	1
0	10087	3141.505669311171	0
0	10093	3141.907229126714	1
0	10094	3142.33689680699	0
0	10130	3153.717567087104	1
0	10133	3156.258529583652	0
0	10144	3158.4982206656	1
0	10145	3158.824726511659	0
0	10157	3162.450614233454	1
0	10159	3163.04008095006	2
0	10160	3168.310897375733	1
0	10166	3168.850809411694	0
0	10174	3170.98212624988	1
0	10175	3184.886268944643	0
0	10200	3191.8678129165	1
0	10202	3192.775895574242	2
0	10203	3193.106913602737	1
0	10210	3196.541213551428	0
0	10216	3199.727697332408	1
0	10218	3199.935212390532	2
0	10219	3200.205582380831	1
0	10226	3204.319834836744	0
0	10247	3206.376242102825	1
0	10251	3207.645475495779	2
0	10252	3209.497232540183	1
0	10258	3210.947500625645	0
0	10268	3219.544704852137	1
0	10270	3220.987663003445	2
0	10272	3221.809268907352	3
0	10275	3222.481939310763	2
0	10280	3222.764032194093	1
0	10290	3224.856732458981	0
0	10302	3227.706738012195	1
0	10304	3228.018890588694	2
0	10309	3229.344073376682	1
0	10314	3230.902520154549	0
0	10384	3260.719990470063	1
0	10385	3261.467566654931	0
0	10391	3261.785713565057	1
0	10395	3262.112403140617	0
0	10402	3263.440128013025	1
0	10403	3263.972626155327	0
0	10418	3269.175466795023	1
0	10420	3270.583403551484	2
0	10422	3270.797602995489	3
0	10425	3272.807719353785	2
0	10430	3273.865134318811	1
0	10437	3276.405647788263	0
0	10454	3280.107817853318	1
0	10457	3280.584916646243	0
0	10464	3286.402087084381	1
0	10465	3286.416532837403	0
0	10496	3292.456724451205	1
0	10498	3295.843349856891	0
0	10504	3297.248560834198	1
0	10508	3298.169968507479	0
0	10539	3316.022182220807	1
0	10544	3317.41427172263	0
0	10550	3317.80181075215	1
0	10553	3319.321173447033	2
0	10555	3320.529698788678	3
0	10556	3320.847389072286	2
0	10562	3322.586042753103	1
0	10570	3325.601352321662	2
0	10572	3325.99479884068	3
0	10576	3327.011674591398	4
0	10577	3327.188436474937	3
0	10582	3328.958507953834	2
0	10590	3330.504565150184	1
0	10597	3331.917465679088	2
0	10600	3332.604414889466	3
0	10601	3334.718231490412	2
0	10607	3334.73298795669	3
0	10611	3336.613312198154	2
0	10617	3337.525164455038	1
0	10623	3340.845878010368	0
0	10635	3341.490474613308	1
0	10636	3345.331455952364	0
0	10644	3347.756952168039	1
0	10647	3349.772998799348	2
0	10649	3351.990590454718	3
0	10651	3352.738047703785	4
0	10654	3354.344447218576	3
0	10659	3354.384735686039	2
0	10671	3355.588593858986	3
0	10672	3357.850762210045	2
0	10679	3358.640594162869	3
0	10684	3360.999041244315	2
0	10689	3361.094377048411	1
0	10697	3363.257298598778	0
0	10716	3367.638891222131	1
0	10718	3367.667430669069	2
0	10721	3371.419304920201	1
0	10727	3372.782969560434	0
0	10734	3374.987923872195	1
0	10736	3376.669111041469	0
0	10773	3379.993648579761	1
0	10777	3381.050809115379	2
0	10778	3381.432562356107	1
0	10787	3382.516748065768	2
0	10791	3384.591040045874	3
0	10793	3385.591244516608	4
0	10794	3386.701060796754	3
0	10799	3387.139152624182	2
0	10807	3387.842117925379	1
0	10817	3392.398612961988	0
0	10829	3393.971670770503	1
0	10830	3395.111035325209	0
0	10836	3396.745066339743	1
0	10838	3398.987866407826	0
0	10845	3400.770691789593	1
0	10846	3400.966542492143	0
0	10870	3409.31053713159	1
0	10872	3411.10785112774	2
0	10874	3411.194214894734	3
0	10879	3417.634685803594	2
0	10884	3418.396652133016	1
0	10891	3420.286091345336	0
0	10906	3422.941567214077	1
0	10911	3424.744353292952	2
0	10912	3424.994273223236	1
0	10917	3425.159535933277	0
0	10923	3425.291781957806	1
0	10924	3426.1490784034	0
0	10938	3431.030498007759	1
0	10941	3432.918328655949	0
0	10973	3447.729411312645	1
0	10974	3448.20372853937	0
0	10980	3449.208939966992	1
0	10983	3450.694414610391	0
0	10990	3450.857642156535	1
0	10991	3451.522612559316	0
0	11007	3463.448892854544	1
0	11009	3464.34039588286	2
0	11011	3464.696438096314	3
0	11015	3466.970958397102	4
0	11018	3469.241290099118	3
0	11023	3469.658238273282	2
0	11031	3470.321388511694	3
0	11033	3470.678006116614	4
0	11035	3471.242159468144	5
0	11036	3472.264310208696	4
0	11045	3477.991910591253	5
0	11047	3479.376138865355	6
0	11050	3479.684962971138	5
0	11055	3479.890033490092	4
0	11065	3483.884936467526	5
0	11067	3484.094907337595	6
0	11068	3484.789135953856	5
0	11077	3485.86157912422	4
0	11082	3486.338233279234	3
0	11087	3486.387993553322	2
0	11092	3486.424695662572	1
0	11099	3486.783430609959	2
0	11103	3487.446935954423	1
0	11108	3488.010876147879	0
0	11114	3489.399176598154	1
0	11116	3489.608076207361	2
0	11119	3490.459149070208	1
0	11125	3491.772684040555	2
0	11127	3492.479493374278	3
0	11130	3494.370633120937	2
0	11136	3494.547377953342	3
0	11140	3495.802013266238	4
0	11141	3496.032153945427	3
0	11146	3496.093062818632	2
0	11155	3500.422597352432	3
0	11157	3501.468413432196	4
0	11159	3501.513989525508	5
0	11162	3502.159356503735	4
0	11167	3503.747069498634	3
0	11172	3505.554639601091	2
0	11178	3505.830350535551	3
0	11179	3508.469803577315	2
0	11184	3510.018804443458	1
0	11193	3514.721384532105	0
0	11197	3515.401127423881	1
0	11200	3516.188939625045	0
0	11204	3519.403733465168	1
0	11209	3521.880288565457	2
0	11210	3525.255533996476	1
0	11215	3525.395990631998	0
0	11258	3538.012286544694	1
0	11263	3540.577776120168	0
0	11286	3546.809059573413	1
0	11289	3548.262096491981	0
0	11295	3548.427947921634	1
0	11298	3549.860494609068	2
0	11300	3550.56237009238	3
0	11304	3552.292486156993	4
0	11305	3553.952300870149	3
0	11310	3555.466716470174	2
0	11317	3556.768467260655	3
0	11319	3556.865562988502	4
0	11321	3557.820361280786	5
0	11322	3558.613442903985	4
0	11328	3560.570774645564	5
0	11331	3561.996516580283	4
0	11336	3563.962569480929	3
0	11342	3564.238362336549	4
0	11350	3567.145908429198	5
0	11351	3568.589150946289	4
0	11358	3569.459795891495	3
0	11364	3569.895269856344	4
0	11366	3570.407655564633	3
0	11372	3572.69455003722	2
0	11382	3573.386599313198	1
0	11389	3575.371685587692	2
0	11390	3575.887251551733	1
0	11396	3577.576091930204	0
0	11419	3580.12141063826	1
0	11422	3583.303932161651	0
0	11432	3587.249165351382	1
0	11434	3587.261015276633	2
0	11435	3587.91326756153	1
0	11440	3588.878042414286	0
0	11452	3589.620200597827	1
0	11455	3590.385173150798	2
0	11456	3592.073332740732	1
0	11464	3592.893907920154	2
0	11465	3594.40401938294	1
0	11471	3595.009015089295	2
0	11474	3596.472239764333	1
0	11483	3597.981416399148	2
0	11485	3598.482274490203	3
0	11493	3604.106901339414	4
0	11494	3604.116320127753	3
0	11504	3606.307125484688	4
0	11505	3607.886561383833	3
0	11511	3611.584310118779	2
0	11517	3612.226852136971	3
0	11521	3615.203615459589	2
0	11527	3615.981390130804	1
0	11533	3616.990673356843	2
0	11535	3617.39625545489	3
0	11536	3617.424003672841	2
0	11542	3617.636446507703	3
0	11548	3620.319330687976	2
0	11554	3621.646064801051	1
0	11559	3621.756240584375	0
0	11566	3623.666743216651	1
0	11569	3624.311772132192	0
0	11577	3624.824533001088	1
0	11579	3625.229993356851	2
0	11581	3626.300063918822	3
0	11583	3627.549865025559	2
0	11589	3629.143331251819	3
0	11592	3632.792274846959	4
0	11593	3632.818032337741	3
0	11598	3634.819657615483	2
0	11607	3639.633629198649	1
0	11613	3640.695327125787	0
0	11627	3642.614835909578	1
0	11632	3643.450134342968	2
0	11635	3647.503012234002	1
0	11641	3647.785714200725	0
0	11667	3657.709544043826	1
0	11670	3659.17819621097	0
0	11680	3665.06288361492	1
0	11681	3665.839337727	0
0	11704	3668.222329405265	1
0	11707	3673.388782501124	0
0	11714	3675.318983309477	1
0	11718	3676.762053594756	2
0	11723	3680.900116240606	1
0	11728	3681.885605289064	0
0	11736	3681.91026018777	1
0	11740	3684.527335201405	2
0	11742	3686.027888891497	1
0	11751	3687.561831203336	2
0	11752	3688.389186785649	1
0	11760	3691.47892717754	0
0	11768	3693.439135696652	1
0	11770	3693.621489155076	2
0	11772	3693.801306279242	1
0	11778	3693.937693813324	2
0	11784	3696.416494837309	3
0	11785	3697.746291198735	2
0	11795	3703.648579742637	3
0	11798	3704.493346892293	2
0	11805	3706.432731122389	3
0	11809	3707.862457544363	4
0	11815	3710.696591673483	5
0	11817	3711.021072264183	6
0	11820	3713.24844629419	5
0	11825	3713.934318842761	4
0	11834	3714.380952805168	5
0	11839	3715.878351960499	6
0	11840	3719.669894578325	5
0	11845	3720.030996680622	4
0	11850	3720.852919473542	3
0	11855	3720.871394835095	2
0	11862	3722.081518286593	1
0	11868	3723.41972801289	0
0	11882	3728.4922010136	1
0	11886	3731.672258199881	0
0	11893	3733.679171191949	1
0	11894	3734.478183646731	0
0	11903	3738.308781094746	1
0	11905	3739.605309911941	2
0	11907	3740.955895444973	3
0	11908	3741.675227371892	2
0	11913	3742.162312145863	1
0	11920	3743.487227078853	0
0	11926	3743.776894874425	1
0	11930	3745.505964618696	2
0	11931	3746.638611848161	1
0	11938	3748.629332970724	0
0	11955	3752.261595723897	1
0	11957	3754.269933532744	0
0	11964	3755.472409852958	1
0	11967	3756.713696079183	2
0	11971	3759.359988720431	3
0	11974	3764.655252197369	2
0	11979	3764.750660200735	1
0	11984	3765.038546988124	0
0	11995	3767.583910301947	1
0	11996	3768.141541946037	0
0	12017	3771.664303688298	1
0	12021	3774.338825628189	0
0	12042	3778.682588511554	1
0	12045	3780.599359572944	2
0	12046	3782.386305792424	1
0	12051	3782.801268227085	0
0	12057	3783.041256883894	1
0	12058	3783.410481663508	0
0	12064	3783.536222330479	1
0	12067	3784.522720536048	2
0	12068	3786.332991234401	1
0	12073	3786.403481811878	0
0	12085	3789.962074372879	1
0	12089	3791.291910099184	0
0	12093	3792.173315557258	1
0	12095	3794.115128315027	2
0	12097	3796.631693565144	3
0	12102	3799.607926926044	2
0	12109	3800.961953215494	1
0	12116	3806.29547863015	0
0	12120	3806.636289616519	1
0	12122	3809.159922000659	2
0	12124	3809.346780091144	3
0	12126	3809.393512226177	4
0	12132	3812.34128410402	5
0	12133	3812.979589734697	4
0	12139	3815.193621892965	3
0	12145	3815.19982352168	4
0	12150	3816.974469470578	3
0	12157	3817.742022548099	2
0	12164	3818.573713609647	3
0	12165	3819.672263596989	2
0	12170	3819.972506653898	1
0	12176	3821.30492362678	2
0	12178	3823.484750908639	3
0	12179	3823.682228071584	2
0	12184	3824.272431715364	1
0	12188	3824.799108859897	2
0	12190	3825.249569778501	3
0	12194	3826.382058579507	4
0	12195	3826.846356321256	3
0	12204	3829.606706108041	4
0	12206	3829.699999582871	5
0	12208	3830.220598755809	6
0	12210	3831.027740734636	7
0	12211	3832.040306105333	6
0	12219	3833.315758213335	7
0	12220	3835.710398314478	6
0	12227	3837.390853720797	7
0	12228	3837.67144840549	6
0	12235	3838.521014884431	7
0	12240	3840.363022591208	6
0	12245	3841.176695194087	5
0	12254	3851.376657688007	4
0	12260	3852.225394661581	5
0	12263	3855.470370064024	4
0	12270	3856.14623178206	3
0	12281	3862.637959142442	4
0	12282	3862.958491701661	3
0	12287	3863.024796821015	2
0	12293	3867.721079362112	3
0	12294	3867.746068012531	2
0	12300	3868.82036150151	1
0	12305	3869.060702105414	0
0	12330	3871.234025233612	1
0	12331	3871.249284724029	0
0	12337	3872.47429967016	1
0	12338	3872.848991101921	0
0	12348	3875.057727591997	1
0	12350	3875.70583989625	2
0	12352	3879.983624214846	1
0	12357	3880.475767125155	0
0	12369	3883.98467144013	1
0	12371	3884.620208707191	0
0	12388	3887.881344228849	1
0	12390	3890.925873918992	0
0	12406	3893.101176792287	1
0	12407	3893.974535225318	0
0	12421	3897.104085327385	1
0	12423	3897.177137873087	2
0	12424	3897.590603288465	1
0	12429	3899.42422067329	0
0	12437	3901.759322823952	1
0	12440	3902.229115428077	2
0	12445	3910.272149454366	1
0	12450	3910.787148212933	0
0	12467	3914.630246839247	1
0	12470	3916.746218201622	2
0	12471	3917.344203660114	1
0	12477	3919.149908365139	0
0	12483	3919.463882366104	1
0	12487	3922.506342191408	0
0	12494	3924.83914448988	1
0	12495	3926.402055685322	0
0	12507	3927.021471908633	1
0	12510	3929.066524266412	0
0	12534	3932.540475883314	1
0	12539	3935.8191785329	0
0	12548	3937.093140335917	1
0	12554	3939.181533258449	2
0	12556	3939.61452313665	3
0	12558	3940.144953224846	4
0	12561	3945.236968122007	5
0	12562	3945.920686918479	4
0	12568	3947.460451926181	3
0	12577	3948.265416047457	4
0	12579	3948.352766940322	5
0	12581	3949.923304497148	6
0	12582	3952.162380952967	5
0	12587	3952.575788700901	4
0	12595	3955.837801919873	5
0	12596	3956.309773511342	4
0	12605	3957.182528506428	3
0	12612	3959.400870442282	2
0	12619	3960.170290188368	1
0	12625	3964.126325289298	0
0	12638	3969.305957907821	1
0	12639	3970.09546002763	0
0	12650	3971.09833328865	1
0	12652	3972.690065781483	0
0	12658	3973.540051473965	1
0	12661	3975.66393238946	2
0	12662	3975.996390734375	1
0	12669	3976.667790974228	0
0	12675	3977.156296427181	1
0	12679	3981.024913141238	0
0	12685	3981.432398272046	1
0	12687	3983.156746888963	0
0	12695	3983.892842521264	1
0	12697	3986.446437801623	0
0	12712	3989.962637489931	1
0	12714	3991.584945646754	2
0	12718	3994.308779070059	3
0	12719	3995.375780739209	2
0	12724	3996.355709609681	1
0	12730	3997.054962097424	2
0	12733	3998.814528052289	3
0	12735	3999.096245929588	2
0	12740	3999.118977143578	1
0	12745	3999.12313511586	0
0	12768	4012.179006559564	1
0	12771	4013.795658733068	0
0	12778	4014.284239583092	1
0	12779	4014.567949865867	0
0	12804	4025.564717547836	1
0	12806	4027.194886563189	2
0	12809	4028.038412462076	1
0	12815	4028.273057692841	0
0	12836	4030.59525339921	1
0	12843	4032.54833441645	2
0	12844	4033.743851608576	1
0	12850	4034.66122122513	0
0	12859	4040.922946735449	1
0	12860	4041.268889286057	0
0	12866	4042.032529446774	1
0	12870	4044.514177375154	2
0	12877	4045.915697969921	1
0	12882	4046.330610402301	0
0	12889	4049.566074885453	1
0	12890	4052.757757677744	0
0	12906	4058.330395404779	1
0	12908	4059.654064924289	2
0	12913	4070.231689906111	1
0	12919	4070.320995911873	2
0	12920	4071.580129098912	1
0	12927	4072.896074167766	0
0	12943	4075.354493166014	1
0	12945	4078.945345811464	2
0	12946	4079.309147899455	1
0	12952	4079.760115200468	0
0	12961	4082.957051574891	1
0	12963	4083.55776790369	2
0	12969	4087.912041239052	3
0	12972	4089.655137537488	2
0	12979	4092.941697221086	1
0	12988	4094.35806406406	2
0	12989	4095.40167140069	1
0	13000	4102.160265039304	0
0	13025	4108.070486517071	1
0	13026	4108.165466995451	0
0	13032	4109.125396810806	1
0	13034	4109.508320679868	2
0	13036	4111.547467853237	1
0	13041	4112.760928213836	0
0	13050	4113.490020124146	1
0	13053	4114.201993617099	0
0	13059	4114.480826363387	1
0	13061	4114.513911703855	2
0	13068	4117.295322305908	1
0	13074	4118.196962957291	0
0	13099	4120.005176556661	1
0	13100	4120.706189100481	0
0	13122	4126.157464755498	1
0	13123	4126.512612712397	0
0	13129	4126.639460511965	1
0	13131	4126.883021148558	2
0	13134	4128.070954068517	3
0	13135	4129.46836819565	2
0	13143	4131.7307493205	3
0	13145	4131.840894862407	4
0	13146	4132.096064757273	3
0	13153	4135.210926629158	4
0	13155	4136.71189864528	3
0	13161	4137.98977325138	2
0	13168	4138.729920458414	3
0	13169	4141.081612177289	2
0	13175	4143.086481931931	3
0	13177	4145.393086072359	4
0	13179	4146.069789923553	5
0	13181	4146.178292190391	6
0	13182	4147.641611196099	5
0	13188	4147.937953618676	6
0	13191	4151.213429159858	5
0	13197	4152.710734726464	6
0	13198	4153.803524871548	5
0	13203	4154.758278892359	4
0	13209	4155.166444374152	3
0	13214	4156.280161522318	2
0	13219	4156.528985166282	1
0	13225	4158.130762981596	2
0	13228	4160.782913844023	1
0	13232	4160.806546200079	2
0	13242	4167.651888599062	3
0	13244	4168.015349995504	4
0	13250	4172.589476313018	3
0	13254	4172.692306672109	4
0	13256	4173.036971050963	5
0	13260	4173.289515590715	6
0	13265	4177.541359756302	5
0	13271	4177.840971512341	4
0	13279	4180.892362815069	5
0	13281	4184.038549041007	6
0	13282	4184.882661503517	5
0	13287	4185.394692840043	4
0	13293	4190.091192180273	3
0	13298	4190.095684890739	2
0	13302	4191.674090803599	3
0	13304	4191.713736757056	4
0	13311	4195.698999014138	5
0	13316	4198.345729578355	4
0	13321	4200.195266636341	3
0	13328	4200.579643034755	4
0	13330	4208.344518123711	5
0	13333	4210.139281376628	4
0	13341	4213.781670735091	5
0	13346	4217.831920321213	4
0	13351	4218.427382603406	3
0	13359	4219.31613707241	4
0	13361	4220.870304461375	5
0	13364	4223.047403677007	4
0	13370	4224.575226307111	3
0	13375	4225.434805255575	2
0	13381	4226.59240403717	1
0	13386	4227.022924704007	0
0	13410	4231.15680418284	1
0	13412	4231.169692017544	2
0	13414	4231.494026270678	1
0	13423	4231.890285322062	2
0	13424	4231.9577837456	1
0	13430	4232.422750405987	2
0	13433	4233.977834574208	1
0	13439	4234.226594071809	2
0	13442	4238.425296410549	1
0	13447	4238.466521104679	0
0	13479	4242.697403786841	1
0	13481	4242.859521400625	2
0	13482	4243.081459539021	1
0	13492	4249.008239310167	0
0	13532	4265.074892006676	1
0	13536	4267.557678264416	2
0	13537	4269.366177682852	1
0	13542	4269.600782717404	0
0	13552	4270.521705454081	1
0	13554	4271.204407995018	2
0	13556	4271.844589939371	3
0	13558	4276.976471644662	4
0	13560	4277.349344427751	5
0	13563	4278.505955353389	4
0	13568	4279.52115703087	3
0	13573	4279.551387242868	2
0	13583	4283.582865329354	1
0	13590	4285.615020583846	0
0	13596	4287.174936662914	1
0	13597	4287.366979848583	0
0	13603	4290.312008336988	1
0	13607	4292.227696517939	2
0	13611	4295.638004029589	3
0	13612	4297.713166809912	2
0	13623	4301.98003791186	1
0	13628	4302.840306886085	0
0	13634	4303.530218014304	1
0	13639	4305.283077342026	2
0	13641	4306.49868537771	3
0	13642	4306.65917670978	2
0	13648	4307.185168665533	3
0	13649	4309.888762838522	2
0	13654	4310.265566949313	1
0	13659	4310.451386512496	0
0	13663	4310.702433540855	1
0	13666	4311.551554173737	0
0	13670	4312.649718453088	1
0	13675	4313.080333463347	2
0	13676	4313.452027826871	1
0	13681	4313.834526558405	0
0	13697	4317.394649150404	1
0	13701	4319.88081912756	2
0	13702	4319.888459149319	1
0	13709	4322.920576506567	2
0	13710	4323.887633363564	1
0	13715	4325.529389946714	0
0	13731	4329.447534473343	1
0	13733	4330.188221371817	0
0	13751	4335.441311533077	1
0	13753	4335.605730973108	2
0	13755	4339.352040374157	3
0	13757	4340.609884979223	4
0	13760	4344.701782205017	3
0	13765	4347.276724235563	2
0	13771	4347.656857236744	3
0	13773	4349.229908753794	2
0	13782	4353.58962388335	1
0	13791	4356.162167693838	0
0	13798	4356.717138883026	1
0	13800	4357.126858105059	0
0	13818	4359.362208460719	1
0	13823	4367.162665379932	0
0	13830	4369.146945490412	1
0	13833	4370.501928671566	0
0	13842	4372.210462752379	1
0	13844	4374.818652389027	2
0	13850	4377.549743881626	3
0	13852	4377.729304390043	4
0	13856	4380.707092266171	5
0	13859	4382.471664561436	4
0	13866	4382.723681231366	5
0	13867	4384.453235077741	4
0	13879	4390.637803622848	5
0	13881	4391.164005603243	6
0	13886	4393.120467276256	5
0	13891	4393.518570527041	4
0	13897	4394.325660102606	3
0	13904	4395.922825178064	2
0	13909	4396.258636769262	1
0	13914	4396.506235802689	0
0	13921	4397.291682558799	1
0	13928	4400.670698881901	2
0	13929	4401.368317011133	1
0	13936	4402.868349558393	2
0	13937	4403.388101945319	1
0	13942	4403.62580831299	0
0	13965	4406.130273064589	1
0	13967	4406.326695069747	2
0	13969	4407.795210640433	1
0	13978	4408.492088877704	0
0	13985	4409.863371747404	1
0	13987	4410.815831410854	2
0	13988	4410.888344029012	1
0	13995	4413.325017044987	0
0	14007	4415.041442022356	1
0	14010	4416.814298540075	0
0	14023	4422.595437413942	1
0	14025	4424.961548704608	0
0	14037	4427.090354520069	1
0	14039	4427.76354480987	2
0	14040	4432.163997268949	1
0	14045	4432.644655748353	0
0	14051	4432.656485923561	1
0	14053	4433.013963536273	0
0	14059	4433.111668114514	1
0	14060	4433.148204921529	0
0	14068	4435.422300392976	1
0	14071	4436.192618539393	0
0	14083	4438.605943435784	1
0	14084	4440.162508740898	0
0	14091	4441.989212664158	1
0	14098	4446.82757773097	0
0	14114	4450.990678658992	1
0	14116	4452.45492652355	2
0	14117	4453.278817440099	1
0	14127	4457.961748672644	0
0	14134	4460.978771705308	1
0	14136	4462.050904848275	2
0	14137	4462.520972012969	1
0	14143	4462.817768219278	2
0	14144	4463.514675211018	1
0	14150	4465.23080097339	2
0	14155	4466.355694936018	3
0	14158	4466.548695612908	2
0	14165	4466.932832185508	3
0	14167	4468.716866230052	2
0	14174	4470.827960306655	3
0	14175	4471.339271632712	2
0	14185	4472.63544759167	1
0	14190	4473.687525204072	0
0	14211	4475.678523273893	1
0	14216	4478.343131823289	2
0	14218	4478.549204372509	3
0	14221	4482.609578570447	2
0	14228	4483.931431767889	1
0	14237	4486.670786350572	2
0	14239	4487.082890404773	3
0	14240	4488.662180697381	2
0	14245	4488.856888030495	1
0	14251	4490.103034331179	2
0	14256	4494.110745408614	3
0	14257	4494.399541947127	2
0	14264	4495.599382198861	1
0	14271	4496.359658030537	2
0	14273	4496.966525906541	3
0	14277	4498.785444556874	2
0	14284	4499.632036838443	3
0	14285	4499.716050096807	2
0	14290	4499.766647968527	1
0	14295	4499.933193698267	0
0	14309	4503.099937620483	1
0	14310	4503.477785658883	0
0	14366	4525.191751141366	1
0	14367	4525.894499051841	0
0	14373	4526.980051397112	1
0	14380	4529.531220592119	2
0	14381	4530.382143383297	1
0	14387	4530.603331481028	2
0	14388	4530.90766362421	1
0	14395	4531.926703516938	2
0	14397	4533.451432172288	1
0	14404	4539.353649735655	2
0	14405	4542.528795565091	1
0	14411	4542.66615817124	2
0	14413	4543.52112823539	1
0	14419	4543.530161497571	2
0	14425	4544.294878652254	3
0	14429	4547.331950335249	4
0	14432	4548.940925189343	3
0	14438	4549.534402975532	4
0	14445	4551.28204530323	5
0	14446	4551.548440597225	4
0	14456	4554.849759166806	5
0	14458	4555.350239256805	6
0	14460	4557.495298313756	7
0	14462	4558.012860425203	8
0	14464	4558.071286999665	9
0	14465	4561.894487648973	8
0	14471	4562.279407235034	9
0	14473	4564.631083470835	8
0	14479	4568.195174662151	7
0	14486	4572.33247501749	6
0	14492	4572.710936147011	7
0	14494	4573.136481710819	8
0	14495	4574.014853300728	7
0	14500	4574.195484739254	6
0	14506	4575.34155235137	7
0	14508	4579.163955573057	6
0	14513	4579.933195677114	5
0	14518	4580.572707163602	4
0	14525	4582.205218918591	5
0	14527	4582.474025184695	4
0	14532	4582.753887618954	3
0	14537	4584.351479672878	2
0	14545	4585.696478407791	1
0	14551	4587.176210993043	2
0	14556	4590.834698234355	1
0	14561	4591.156644471033	0
0	14606	4600.356230695971	1
0	14607	4600.424947984277	0
0	14623	4602.877794265119	1
0	14626	4605.532934346952	0
0	14638	4608.264709934767	1
0	14639	4608.402176081493	0
0	14648	4609.458481472746	1
0	14649	4611.722053631685	0
0	14657	4611.945839586258	1
0	14660	4614.54519373218	0
0	14712	4632.387794912452	1
0	14714	4633.619437085993	2
0	14717	4637.408746484638	1
0	14723	4639.408415165547	0
0	14729	4640.256824022612	1
0	14731	4642.088157411483	0
0	14750	4646.031173274643	1
0	14751	4646.260663498077	0
0	14763	4648.139836787848	1
0	14765	4650.47603278764	2
0	14768	4651.329702898921	1
0	14774	4653.061296512767	0
0	14783	4655.549193843057	1
0	14787	4655.963500474623	2
0	14788	4656.092075175163	1
0	14793	4656.097006495633	0
0	14801	4657.374226841643	1
0	14802	4657.419651660485	0
0	14809	4658.819697131107	1
0	14813	4660.335319401408	2
0	14817	4665.880303277037	3
0	14818	4666.13992754582	2
0	14823	4666.37034357802	1
0	14828	4667.737358920806	0
0	14839	4668.225485639291	1
0	14841	4669.430154356347	0
0	14847	4670.259759378409	1
0	14854	4675.000710131024	2
0	14856	4675.238051516238	3
0	14857	4675.753423526146	2
0	14865	4678.620492048224	3
0	14867	4679.50238451215	4
0	14868	4679.805361761246	3
0	14873	4680.31113287958	2
0	14879	4681.871147829805	1
0	14885	4683.30934453169	2
0	14887	4684.326252426965	3
0	14890	4686.647862274047	2
0	14899	4688.025519493907	3
0	14900	4692.376171279039	2
0	14908	4693.213881026121	1
0	14913	4693.525086202834	0
0	14962	4707.92869937949	1
0	14966	4711.625593868376	2
0	14967	4712.29308015892	1
0	14973	4714.356697416183	0
0	14995	4719.977548757252	1
0	14998	4722.560984477361	0
0	15012	4727.569011564589	1
0	15017	4729.10200925827	0
0	15029	4731.953597987643	1
0	15031	4732.280464597538	2
0	15032	4735.984110675922	1
0	15039	4737.658942065957	0
0	15060	4740.110949431874	1
0	15064	4741.804801947365	2
0	15067	4747.814927803206	1
0	15073	4748.513261459111	0
0	15080	4749.260527869705	1
0	15082	4749.368465019727	2
0	15083	4750.212044256581	1
0	15088	4750.900110358913	0
0	15101	4755.371894351617	1
0	15109	4760.084624075231	2
0	15111	4760.225321213576	3
0	15112	4760.573023698215	2
0	15118	4760.614129989152	3
0	15121	4761.538782908714	4
0	15123	4761.608436665193	5
0	15124	4761.717201363129	4
0	15130	4762.21206763041	5
0	15132	4763.285588722321	4
0	15137	4763.381804407682	3
0	15143	4764.186932866929	4
0	15145	4764.424360451611	3
0	15154	4765.153134023451	4
0	15158	4773.164075835198	3
0	15164	4774.728743552397	2
0	15169	4774.751865639587	1
0	15175	4775.109567898415	0
0	15206	4783.964580236855	1
0	15210	4785.58558887495	0
0	15224	4789.428203247073	1
0	15225	4789.824368765372	0
0	15242	4792.223685706016	1
0	15243	4792.331564531447	0
0	15249	4792.465238451675	1
0	15251	4795.987059037596	0
0	15257	4796.20703656836	1
0	15266	4801.088426542871	2
0	15267	4801.338740954847	1
0	15272	4802.066076108066	0
0	15287	4805.284428869245	1
0	15291	4808.0601893501	2
0	15294	4808.529381877861	3
0	15300	4811.631122108172	4
0	15301	4812.171673059011	3
0	15307	4812.269864864247	4
0	15308	4813.291427866464	3
0	15314	4814.023637511407	4
0	15319	4815.372011777979	3
0	15324	4816.784426916326	2
0	15330	4817.018986502841	3
0	15333	4820.181458713094	2
0	15340	4820.432374887582	1
0	15348	4823.341734939609	0
0	15359	4823.696908004131	1
0	15361	4824.119442998305	2
0	15362	4825.379392571342	1
0	15368	4825.730742611424	2
0	15370	4826.976399449773	1
0	15375	4827.730162999877	0
0	15387	4829.523821554012	1
0	15388	4829.924834608798	0
0	15394	4830.651963056678	1
0	15397	4834.808499204411	2
0	15398	4836.819759730423	1
0	15409	4840.539405323382	0
0	15456	4851.043242897788	1
0	15457	4852.744681312071	0
0	15463	4852.872923972775	1
0	15464	4852.945811192382	0
0	15470	4853.100707926314	1
0	15474	4856.51588554436	0
0	15488	4860.774127182735	1
0	15489	4861.205633165413	0
0	15497	4863.879159064006	1
0	15498	4864.277121006548	0
0	15509	4865.441286516773	1
0	15512	4867.001091596403	2
0	15518	4870.225525367242	1
0	15524	4870.987775724588	0
0	15536	4881.699333989863	1
0	15540	4882.038709704378	2
0	15542	4883.215173895513	3
0	15543	4883.297366790362	2
0	15552	4886.260241812863	3
0	15554	4887.065300132281	4
0	15556	4888.088630593253	5
0	15557	4888.569951444115	4
0	15563	4889.783014952215	3
0	15568	4890.771030406788	2
0	15573	4892.393383256081	1
0	15578	4892.984420259439	0
0	15627	4906.908922311035	1
0	15628	4907.627943068727	0
0	15634	4907.677881562206	1
0	15638	4908.805547803227	0
0	15644	4909.171963054041	1
0	15648	4915.002685397467	0
0	15661	4918.88314567114	1
0	15663	4919.112434465106	2
0	15665	4919.204495823358	3
0	15667	4919.839758945944	4
0	15668	4920.721723344154	3
0	15673	4921.505054701879	2
0	15678	4922.809707680796	1
0	15691	4927.98516806954	2
0	15693	4928.97854252572	1
0	15699	4929.656557153914	2
0	15706	4934.774375880747	3
0	15708	4935.038297608534	4
0	15709	4935.871789758606	3
0	15715	4936.4023076103	4
0	15716	4937.195100990616	3
0	15721	4937.507202078166	2
0	15730	4939.862693340486	3
0	15732	4939.939318679834	4
0	15734	4940.002348145972	5
0	15735	4940.22285509855	4
0	15743	4941.643920964692	3
0	15750	4943.295414444229	2
0	15757	4945.544299022398	1
0	15763	4946.277454514667	0
0	15770	4948.085425186847	1
0	15772	4948.478840591719	2
0	15773	4949.143604116911	1
0	15780	4954.06213737116	0
0	15810	4963.877670164856	1
0	15811	4966.717315711118	0
0	15825	4972.577456068456	1
0	15827	4972.734421257761	2
0	15828	4973.688321399567	1
0	15834	4974.057578410843	2
0	15835	4974.70844303439	1
0	15841	4976.388326927083	2
0	15847	4979.953851854552	1
0	15852	4985.051657203481	0
0	15867	4989.06479972234	1
0	15871	4989.942785374849	2
0	15876	4991.150196395223	1
0	15883	4992.192865222062	0
0	15899	4997.729723705353	1
0	15902	5002.35081231859	2
0	15904	5002.778930459773	3
0	15906	5003.38552582286	4
0	15909	5006.86348474607	3
0	15917	5007.977636768689	4
0	15918	5011.346171151768	3
0	15924	5015.182568950311	2
0	15929	5015.716507187608	1
0	15936	5016.22954898535	0
0	15950	5022.969435583547	1
0	15951	5023.046897341741	0
0	15973	5033.301666730115	1
0	15974	5033.52607373774	0
0	15980	5033.93454310315	1
0	15985	5035.675248511219	2
0	15986	5036.755738936825	1
0	15991	5038.465404026321	0
0	15997	5039.152110914598	1
0	15998	5039.381466535313	0
0	16010	5040.300069100414	1
0	16013	5043.259185627266	0
0	16029	5046.99711498568	1
0	16031	5047.74091092591	2
0	16033	5050.033054744682	3
0	16034	5052.394517727959	2
0	16040	5052.903120635671	1
0	16047	5054.68053981708	2
0	16051	5058.313316739104	3
0	16052	5059.136357677948	2
0	16058	5059.834602724985	3
0	16060	5062.389005506393	2
0	16069	5062.836657579027	3
0	16070	5064.626295823428	2
0	16077	5065.8887970188	3
0	16078	5066.222650790653	2
0	16087	5067.803293518653	1
0	16092	5069.330261198377	0
0	16105	5071.38899527122	1
0	16106	5071.666054967797	0
0	16133	5075.879144791603	1
0	16135	5076.461057335241	2
0	16136	5077.010963899849	1
0	16141	5078.454635491263	0
0	16156	5081.062092038264	1
0	16158	5082.224705986619	2
0	16162	5083.167533219464	3
0	16164	5085.621506174375	2
0	16170	5086.351378613844	1
0	16177	5086.688872305503	2
0	16178	5086.979809530741	1
0	16187	5090.704891682361	2
0	16188	5091.257146856979	1
0	16195	5093.566960772321	2
0	16196	5096.609355007974	1
0	16203	5097.612534065376	2
0	16205	5098.355533416195	3
0	16207	5099.974133492358	4
0	16208	5100.204783060596	3
0	16220	5101.896861832321	4
0	16223	5105.166356416449	5
0	16224	5105.495973928895	4
0	16229	5105.843347603387	3
0	16235	5108.336919088016	2
0	16240	5110.501000675214	1
0	16247	5111.706630999109	2
0	16248	5111.811555370978	1
0	16253	5114.135573539334	0
0	16264	5115.002572163602	1
0	16268	5115.851065714861	2
0	16274	5119.673415422405	3
0	16276	5120.819857985006	4
0	16282	5123.05078025774	5
0	16283	5123.690877711827	4
0	16290	5124.957507058949	3
0	16296	5126.398874188436	2
0	16308	5135.057996662428	1
0	16316	5137.260709974199	2
0	16318	5139.249062073206	3
0	16321	5143.411238617245	2
0	16326	5143.534042676925	1
0	16332	5143.539778895177	2
0	16333	5143.771681650926	1
0	16343	5150.187765764442	0
0	16363	5154.919918119937	1
0	16366	5156.968370657019	0
0	16375	5158.180396663897	1
0	16377	5161.000685579308	2
0	16382	5163.724143360811	1
0	16389	5163.940422859974	2
0	16390	5165.35597827093	1
0	16396	5165.874311952137	2
0	16397	5166.138500169564	1
0	16402	5166.956031794343	0
0	16430	5175.484090493653	1
0	16433	5176.4037661987	0
0	16447	5178.3841696794	1
0	16449	5179.866441948904	2
0	16450	5180.842802792887	1
0	16455	5182.43144292504	0
0	16471	5185.270975722863	1
0	16474	5186.387137932852	0
0	16480	5186.917583996017	1
0	16482	5187.604234357566	0
0	16490	5188.556783786335	1
0	16492	5188.659785714132	2
0	16494	5189.558546657425	3
0	16499	5192.426305408889	4
0	16500	5193.474594704168	3
0	16506	5193.769772953694	2
0	16513	5194.556560783056	3
0	16518	5197.367322903619	2
0	16523	5197.845782186013	1
0	16528	5198.588865495167	0
0	16547	5204.048722398682	1
0	16549	5207.331496453649	2
0	16550	5208.180914518168	1
0	16556	5208.190192128188	2
0	16557	5208.432396712684	1
0	16564	5209.417780007499	0
0	16585	5214.400149227592	1
0	16592	5216.732084628106	0
0	16598	5216.950563671064	1
0	16603	5221.628504488245	2
0	16604	5222.258481147242	1
0	16610	5222.904606847429	0
0	16617	5224.301469999787	1
0	16618	5224.795962392192	0
0	16645	5232.298403095917	1
0	16647	5232.882400615824	2
0	16651	5235.496938404838	3
0	16652	5235.568370286071	2
0	16658	5235.915429973311	1
0	16665	5237.441182562827	0
0	16676	5238.486467470547	1
0	16679	5239.74045393112	0
0	16712	5261.985069205195	1
0	16716	5263.267163862039	2
0	16723	5266.260894115497	3
0	16725	5266.924990767766	4
0	16727	5267.176348974679	5
0	16730	5269.907521014727	4
0	16737	5272.419325025134	5
0	16741	5273.281340233848	4
0	16746	5273.50198239954	3
0	16755	5277.053585185596	4
0	16757	5277.430985277945	5
0	16758	5278.292058907818	4
0	16763	5278.936720820104	3
0	16768	5279.295029897778	2
0	16773	5281.084619230515	1
0	16780	5283.272642710917	0
0	16793	5290.67749715367	1
0	16795	5291.866462612926	2
0	16796	5292.449000702829	1
0	16802	5293.4662259393	0
0	16808	5294.872155440269	1
0	16810	5295.491317430991	2
0	16812	5297.062877867658	1
0	16819	5299.22900234634	2
0	16821	5299.557613481066	3
0	16822	5300.51039939936	2
0	16828	5301.142700767652	3
0	16830	5301.795388350988	4
0	16832	5302.709594864326	3
0	16837	5303.757035578281	2
0	16847	5310.605907752176	1
0	16854	5311.781876961265	0
0	16897	5319.934298349109	1
0	16900	5323.052151114763	0
0	16910	5325.222957000767	1
0	16912	5325.244535283386	2
0	16915	5326.491975964577	1
0	16922	5328.534557971889	2
0	16924	5329.173722766654	3
0	16926	5331.65778626164	4
0	16928	5333.886399462436	5
0	16931	5337.443444189973	4
0	16940	5342.396523211288	5
0	16942	5343.027239518418	6
0	16947	5346.824655362926	5
0	16952	5347.187728251041	4
0	16957	5347.472386489142	3
0	16963	5348.869791272422	2
0	16968	5349.916812711121	1
0	16974	5350.137305023862	0
0	16990	5356.009202050797	1
0	16992	5356.125930639583	2
0	16996	5357.223895498201	3
0	16998	5358.266426675023	4
0	16999	5360.213556399834	3
0	17004	5361.287534161894	2
0	17014	5364.528901335286	1
0	17019	5365.019854608322	0
0	17030	5366.026264123266	1
0	17038	5368.097114635153	2
0	17039	5368.726711866392	1
0	17046	5371.665074093101	2
0	17047	5373.596693139611	1
0	17054	5375.070273438481	2
0	17056	5375.080248748414	3
0	17058	5377.186203284075	4
0	17060	5379.138266739345	5
0	17061	5380.347597597874	4
0	17066	5380.820221788801	3
0	17072	5381.219123310125	4
0	17074	5382.709702858582	3
0	17079	5384.282105251952	2
0	17084	5384.852169790076	1
0	17094	5390.664057899273	2
0	17095	5390.764988646918	1
0	17103	5392.65934315237	0
0	17136	5396.696118692058	1
0	17139	5401.337297303848	0
0	17146	5402.775876469493	1
0	17147	5403.030350977933	0
0	17159	5405.679465730197	1
0	17160	5406.485190249966	0
0	17167	5406.818668724581	1
0	17169	5407.667169191121	2
0	17170	5407.90174936232	1
0	17177	5408.295681180142	2
0	17178	5408.49926175881	1
0	17185	5408.652590084337	2
0	17187	5409.739049017316	3
0	17188	5409.795712715041	2
0	17194	5411.15883785568	1
0	17199	5413.760181195131	0
0	17214	5417.637803072712	1
0	17215	5417.839227695504	0
0	17237	5422.398765518235	1
0	17239	5423.111544463117	2
0	17241	5423.316028982202	3
0	17247	5424.474255240421	4
0	17248	5424.932810411243	3
0	17259	5427.123761422883	2
0	17266	5427.83880590108	3
0	17269	5432.105353139982	2
0	17277	5433.664063257929	3
0	17279	5436.801519534902	4
0	17281	5436.890747544079	5
0	17283	5437.145775037555	6
0	17284	5437.769071069715	5
0	17290	5438.605092225656	4
0	17295	5439.068056842506	3
0	17300	5440.741651814383	2
0	17310	5444.09215969982	3
0	17315	5447.861013095671	2
0	17323	5449.757974304492	1
0	17329	5452.034976931622	0
0	17336	5452.614817582037	1
0	17338	5452.803241994143	2
0	17342	5453.368624920175	3
0	17345	5454.468184731936	2
0	17350	5455.300125043445	1
0	17357	5456.371324065051	2
0	17359	5457.03900207774	3
0	17360	5457.343554883531	2
0	17366	5457.884827847767	3
0	17367	5458.031796193062	2
0	17372	5458.247241064672	1
0	17380	5463.741162405377	0
0	17403	5471.218191536379	1
0	17407	5474.134993579934	2
0	17409	5474.230987465117	3
0	17411	5474.986698348108	2
0	17418	5480.914165734857	1
0	17424	5482.076307853	2
0	17425	5482.510257933882	1
0	17433	5484.929257935016	0
0	17439	5486.990436736105	1
0	17441	5489.881653354878	0
0	17452	5490.32815157414	1
0	17454	5493.349570834437	0
0	17461	5499.0966103392	1
0	17465	5501.272447159298	2
0	17475	5506.258192880879	3
0	17476	5507.160464400445	2
0	17482	5509.933829345028	1
0	17488	5511.184244333767	2
0	17490	5512.037919516715	3
[...]
4	82613	26449.765834784756	4688.2737761248
4	82634	26453.229969597671	4673.013043971
4	82647	26456.055447791154	4665.3743736362
4	82657	26458.298181398337	4660.3126470004
4	82673	26460.77960460531	4656.2394383287
4	82687	26463.876880775993	4654.9926771666
4	82694	26465.678815775386	4656.1497209537
4	82711	26471.299928842065	4657.4320698392
4	82760	26485.592371425455	4668.4786731188
4	82776	26491.026786522294	4670.9052775594
4	82808	26499.085848450799	4671.6494918708
4	82817	26505.93396525554	4666.9201930325
4	82883	26523.142176877994	4656.7780150163
4	82894	26527.511795690303	4656.6831343322
4	82955	26554.977462193511	4683.1889074987
4	82980	26557.398443159968	4673.3371314575
4	82987	26561.469981567521	4668.0465359008
4	83002	26564.80066760177	4668.6712250185
4	83098	26592.523177001928	4694.099931538
4	83112	26596.407517426917	4672.0777587239
4	83129	26605.047456367532	4678.7745776486
4	83213	26631.430740281147	4683.2591125842
4	83291	26660.021062041704	4710.4610206925
4	83298	26660.693378472955	4702.6266274766
4	83306	26663.499848010978	4695.4084823651
4	83312	26664.586170287847	4691.6611604025
4	83319	26668.007372187572	4691.678725649
4	83324	26669.135220184684	4688.877986823
4	83332	26674.368603759036	4681.621558845
4	83355	26679.279691319062	4683.7542599248
4	83368	26685.690803409764	4689.3775310204
4	83428	26698.635949581205	4694.6746867443
4	83436	26701.550206580873	4696.190156982
4	83441	26701.669735037546	4690.5177235773
4	83448	26706.402547172183	4694.3477640946
4	83498	26715.416878075151	4698.5441111505
4	83555	26737.438269337775	4711.8523096919
4	83560	26741.600084286923	4714.5279761226
4	83569	26747.692134558159	4708.4508653214
4	83641	26769.047860707293	4726.6244899197
4	83648	26769.317342927878	4725.8509730604
4	83654	26770.188758517226	4724.6483786388
4	83659	26770.852176304749	4725.1347978477
4	83676	26779.79372130364	4724.1506273053
4	83729	26809.182587557515	4749.5019911318
4	83734	26809.182775543835	4742.3893720272
4	83741	26811.471100690769	4741.6401773841
4	83746	26812.484704302993	4727.3815487539
4	83753	26812.983955324661	4724.3663765065
4	83769	26818.770880392695	4726.0502719806
4	83784	26823.848897355355	4729.9883915904
4	83801	26827.722719078044	4728.0563632911
4	83825	26832.006816322032	4726.4555009686
4	83848	26837.435757492407	4726.6979170583
4	83887	26845.729997070104	4731.6437058913
4	83899	26848.057686180905	4728.2305324708
4	83906	26848.392212329932	4719.3513058329
4	83916	26852.755715280477	4723.6197927027
4	83931	26853.642083681738	4723.2819105014
4	83938	26856.07763257516	4705.0549881242
4	83949	26861.175244641348	4704.7768220992
4	83962	26864.770508382338	4702.3369378578
4	83997	26872.128193622124	4683.7687433958
4	84009	26874.403636730375	4684.0107013302
4	84016	26878.319526504234	4684.2722833524
4	84025	26878.711030797628	4679.2517808205
4	84035	26879.85305023014	4674.8224543791
4	84042	26882.525432462829	4673.6445551138
4	84047	26882.790834699106	4665.0515673406
4	84056	26886.466961324489	4662.6955716197
4	84075	26894.047245379414	4665.8877998784
4	84144	26917.466124919657	4679.9300323762
4	84159	26926.224086854791	4686.6922750211
4	84210	26942.189998149844	4700.872454169
4	84217	26944.870530101147	4686.3594455016
4	84341	26986.527613587489	4725.7702988115
4	84353	26989.629933192631	4724.5980954491
4	84403	27006.554561441777	4736.7855820323
4	84450	27021.917273519913	4751.7169296519
4	84467	27025.325130852235	4752.023180502
4	84477	27027.537764735032	4753.5207879502
4	84489	27031.615292374738	4751.2583898109
4	84502	27034.412880438114	4748.3939137582
4	84511	27036.442635968709	4708.9444033503
4	84527	27040.349627840823	4706.7824037237
4	84568	27053.317549934738	4716.37412643
4	84580	27058.681351160076	4721.2218676189
4	84603	27068.305683278279	4729.3464361587
4	84608	27068.814797137415	4719.1573053064
4	84613	27075.395501502268	4715.4468550856
4	84623	27080.488898882837	4718.3587121428
4	84658	27087.553469649206	4717.8781788561
4	84669	27095.627399039477	4719.5169569407
4	84690	27102.161386597821	4720.4642429691
4	84713	27108.357413024299	4724.7583673964
4	84733	27111.094741614291	4721.0638356684
4	84741	27112.401571340454	4720.0410611932
4	84746	27114.357275587531	4720.2073252437
4	84751	27115.047572997921	4709.9619583593
4	84756	27116.32480936707	4708.9086916523
4	84765	27119.226118317618	4700.429321001
4	84791	27130.726718428119	4690.5939791952
4	84806	27137.078307568165	4686.6690534408
4	84861	27149.381854705555	4696.7388556709
4	84872	27156.955136104249	4702.7879481656
4	84894	27160.565071511297	4704.3306758111
4	84911	27167.010767578177	4709.1691616895
4	84977	27185.246409775883	4722.2977282298
4	84989	27186.068955053462	4705.371248979
4	85004	27190.864578600389	4702.9065764466
4	85031	27196.607793216825	4704.5421742095
4	85078	27208.855923434702	4714.3748795061
4	85106	27216.95097963641	4720.0261219452
4	85121	27224.697363490607	4725.0366785181
4	85134	27228.020343788901	4711.2210458199
4	85155	27233.449995840123	4707.1134283821
4	85172	27244.216273860602	4715.3728297266
4	85327	27287.193215347897	4749.3230359101
4	85342	27294.015144385424	4748.8988994803
4	85357	27299.52445862232	4747.3523590074
4	85364	27306.007039976023	4751.085981713
4	85369	27307.756667078992	4750.6543519315
4	85378	27312.695012079058	4749.1944119868
4	85395	27317.675795588913	4736.5735428743
4	85404	27322.162046818883	4723.1625365036
4	85460	27337.428146276065	4736.2642388722
4	85474	27341.867490922822	4740.046947699
4	85488	27344.151347340349	4741.2367525105
4	85496	27345.366889596553	4737.5718804266
4	85507	27352.975423486015	4722.4445589635
4	85522	27363.337170318643	4726.8842071505
4	85600	27377.931911067842	4733.3398118303
4	85605	27378.771737465738	4727.4084161727
4	85610	27379.606988508915	4726.1050881801
4	85619	27381.958746612647	4724.0535045795
4	85702	27411.198388521794	4752.9336551152
4	85707	27411.559253154309	4744.3343890677
4	85712	27415.342817817136	4743.5464749504
4	85717	27415.631911227516	4742.2501929961
4	85725	27419.641589699227	4744.7247698494
4	85730	27421.055141929664	4743.2736485462
4	85738	27426.092404185364	4746.6231789909
4	86630	27715.529800432885	5035.4230794912
4	86636	27718.31591666705	5034.1296274428
4	86641	27718.450802501526	5030.7760083123
4	86646	27719.732237013213	5021.8239081916
4	86654	27720.905231725307	5015.0378750033
4	86659	27721.933677068891	5005.8120138423
4	86669	27728.415428025892	5011.5685624336
4	86699	27736.48021866894	4995.9293761215
4	86704	27736.564419104567	4992.9705320107
4	86711	27738.519672602772	4994.7686294308
4	86725	27740.304876424588	4996.4575945255
4	86737	27741.962459312471	4994.22794639
4	86742	27743.2226500617	4987.3648583017
4	86751	27748.363412018683	4987.2918477787
4	86772	27759.736980099535	4973.6543774935
4	86901	27794.213973033899	5008.1217954473
4	86906	27794.268357949729	5007.5008964867
4	86919	27798.284515266261	5004.7497174803
4	86985	27821.549195890248	5027.4932704092
4	86999	27825.052058241191	5028.1952439179
4	87035	27836.268706151179	5026.0109828613
4	87069	27840.672072880835	5026.2686055354
4	87074	27842.878708540825	5028.1957301849
4	87081	27845.163481194369	5016.4188354058
4	87086	27845.549215420838	5009.8219923002
4	87094	27847.861516014214	5008.5388236532
4	87103	27849.292256901792	4989.1610932757
4	87152	27863.244906475027	5001.854902199
4	87161	27867.499207271968	5002.8325073445
4	87176	27873.22295748396	5006.1081410746
4	87206	27880.206476711393	5009.4186417979
4	87229	27886.942138405829	5014.0557577398
4	87559	27987.805841357802	5114.545880551
4	87570	27991.047468514872	5114.8542686823
4	87589	27996.304011003039	5119.175912353
4	87594	27996.547112693508	5119.2488049445
4	87601	27996.952960363441	5113.0742503498
4	87621	28000.105778339569	5115.3063695435
4	87629	28002.678654784367	5109.2756238547
4	87642	28004.902962118451	5110.9778434173
4	87647	28006.568261617771	5105.7987946547
4	87652	28008.409719944743	5106.1268033791
4	87659	28009.145403246469	5104.4349176241
4	87684	28015.36542523164	5091.388841184
4	87730	28029.715543345646	5092.6977132925
4	87736	28030.949219257933	5090.4475186032
4	87750	28038.648373676513	5086.7313201019
4	87798	28051.569827111189	5082.0303773718
4	87813	28055.970264109124	5082.8608997386
4	87825	28062.881046082146	5080.7845328435
4	87943	28110.053987019837	5120.778227121
4	87951	28113.30151017578	5115.8948454348
4	87958	28113.902598537091	5107.0336190215
4	87971	28117.572666426264	5100.603444469
4	88021	28142.110041936916	5121.4690009273
4	88026	28142.646246380163	5118.0773925995
4	88031	28142.91748293618	5111.0338124155
4	88040	28144.407895423428	5095.1226735198
4	88063	28150.159556659848	5092.8746592554
4	88071	28155.284184934464	5097.6633762253
4	88077	28156.248627803427	5087.2503293879
4	88082	28158.099200944008	5088.5237501955
4	88087	28158.793105050508	5088.3779634972
4	88096	28159.405733187596	5088.3568753148
4	88133	28166.59315015936	5094.361152991
4	88138	28167.164358585799	5086.7885116951
4	88148	28172.277234262203	5089.6296492673
4	88180	28180.740359693731	5089.9417556695
4	88315	28224.614952326679	5133.5357004322
4	88321	28225.967503683923	5134.0812383407
4	88328	28234.194908608246	5137.0235532838
4	88335	28236.206721853083	5133.7516139435
4	88347	28237.62190754467	5132.8542608189
4	88387	28254.301632154037	5138.5968396419
4	88406	28257.732305873359	5120.2905824834
4	88425	28265.557905793248	5125.6191399064
4	88460	28277.232248873716	5133.8776119086
4	88474	28280.62444927333	5125.2921784029
4	88498	28288.555636959446	5126.4071502216
4	88529	28299.223848218455	5135.1214650456
4	88614	28323.347232181369	5147.0803996548
4	88625	28332.569311492809	5152.2392637933
4	88660	28338.86121131539	5154.8338097975
4	88670	28339.105400281066	5150.1734297942
4	88677	28341.174893443731	5148.2199072415
4	88683	28341.957120023737	5144.7553001538
4	88692	28347.398535906368	5144.6509920137
4	88713	28355.522823497433	5152.0141498208
4	88734	28362.439834467007	5158.6144600889
4	88768	28369.057232927293	5157.8575197228
4	88781	28373.06036628621	5161.6396876498
4	88788	28375.662604657369	5163.7462882397
4	88802	28379.703159519439	5167.0086253148
4	88839	28389.410210720972	5174.0918011673
4	88851	28394.959878623984	5172.7694044481
4	88858	28395.972898749531	5166.4196032497
4	88885	28403.651029944913	5171.8677150204
4	88973	28427.771194250166	5186.6724631462
4	88983	28427.979268624367	5183.0497244605
4	88998	28436.138267387139	5181.7003047841
4	89027	28443.823863560609	5187.6718863244
4	89039	28445.551263763956	5178.7968343789
4	89044	28445.659028326424	5170.7048583278
4	89051	28447.402558251054	5170.7328934906
4	89066	28453.59835879697	5176.5230501595
4	89073	28457.891932827325	5170.4177260652
4	89097	28467.90958952358	5164.4648612493
4	89108	28469.150550219487	5165.2199653871
4	89113	28469.460079690049	5158.9712573598
4	89122	28472.833433303534	5156.1560785588
4	89151	28487.700627122145	5169.4523294369
4	89165	28491.176966354322	5170.4634653006
4	89179	28499.298763839765	5167.3594659767
4	89204	28513.629569771457	5176.3219488472
4	89266	28529.594993631599	5186.6135794679
4	89300	28536.300425244004	5172.9109330649
4	89305	28538.64298104724	5174.3206658588
4	89310	28540.295884615434	5175.6265319044
4	89321	28546.831157545139	5181.3019318966
4	89367	28564.264789652269	5191.5938583528
4	89478	28605.688873729496	5230.2194488557
4	89497	28612.461747156942	5228.6533657905
4	89540	28622.61164354713	5236.7217035244
4	89559	28629.93144870072	5242.7326985549
4	89565	28631.913559166574	5240.6526712301
4	89571	28632.391306450586	5230.4436497357
4	89576	28633.164777506155	5228.1560730649
4	89581	28634.205770450189	5222.6680992807
4	89588	28635.319635970504	5222.8407500375
4	89599	28638.405754593819	5223.8877184381
4	89677	28656.039954142636	5239.6808733449
4	89684	28662.148690520348	5238.893083149
4	89689	28664.829348077139	5241.2471287439
4	89700	28671.241824150922	5246.8088671775
4	89754	28683.102532824207	5256.7784553607
4	89793	28692.228124811706	5262.4104823117
4	89800	28695.623047779102	5261.3049174404
4	89811	28701.589874623002	5251.5342285225
4	89883	28715.489535596751	5263.6971728485
4	89892	28716.860150315544	5263.3594615864
4	89979	28750.820786464162	5297.054431991
4	89986	28751.406904766934	5297.2741698029
4	90047	28767.571424152282	5296.9629741551
4	90090	28780.41643984958	5295.8170358316
4	90100	28787.250168731797	5301.1169175305
4	90107	28788.114005165308	5300.353100811
4	90114	28792.990630409767	5303.427717242
4	90121	28794.161343012546	5304.3105316465
4	90135	28799.479277470245	5288.1533455295
4	90140	28799.747961896127	5269.0769688117
4	90147	28803.565538667813	5270.7443669929
4	90163	28811.34669270413	5275.2374276688
4	90187	28814.663089365758	5277.6066655293
4	90192	28814.889008999645	5275.4426178466
4	90200	28818.860776429543	5278.0966090583
4	90207	28823.276610551007	5281.4198812773
4	90219	28828.144246416862	5285.4151139306
4	90237	28833.764830877226	5291.0325700696
4	90252	28836.315532509363	5293.3927600528
4	90269	28841.234830275157	5293.4764803297
4	90289	28846.023640602399	5295.0179504804
4	90298	28850.075659404433	5290.5191864723
4	90314	28850.941737920904	5289.8547738824
4	90321	28851.931084289636	5287.842562728
4	90342	28864.194742105392	5296.1772883261
4	90406	28884.742079631481	5287.9824468052
4	90412	28886.712077238381	5267.4465749944
4	90431	28891.119128972651	5261.5215974555
4	90461	28895.584658284915	5264.9816117254
4	90494	28908.631112041265	5268.7298229119
4	90500	28910.003443490674	5261.985452753
4	90512	28914.059445508985	5264.4716200617
4	90532	28917.94070499517	5261.85063117
4	90604	28937.216350336662	5277.8932672955
4	90611	28940.496962826269	5274.6842494938
4	90651	28951.157384782091	5276.3484332986
4	90657	28953.399757337869	5265.1719232695
4	90664	28955.415489299067	5263.4257138475
4	90686	28959.361817724041	5263.1898860915
4	90736	28982.59388294555	5284.3411103993
4	90749	28985.810588394752	5273.4735474879
4	90757	28987.06693258692	5273.986183377
4	90762	28987.494422140703	5267.7263216193
4	90767	28989.595834067019	5260.3989381457
4	90782	28993.190928937843	5261.6352493948
4	90831	29004.845369618504	5268.7053099985
4	90841	29005.77227180559	5266.0174272293
4	90851	29017.426492640238	5271.3160425999
4	90866	29022.834592332645	5271.0019278901
4	90877	29024.1429906221	5269.0698496846
4	90884	29025.322309356993	5269.166675416
4	90903	29036.478855122077	5280.1036620613
4	90959	29057.263919472214	5289.996868773
4	90988	29066.688538869023	5294.0442153534
4	91008	29069.115792530213	5293.1772086524
4	91019	29070.469632319436	5279.2916076978
4	91024	29071.534058404432	5275.6841176524
4	91031	29073.308952362176	5273.767181376
4	91041	29079.59588040357	5278.7886427619
4	91158	29115.087929802688	5295.6156295897
4	91213	29126.652320138686	5304.6201666777
4	91262	29136.118966322692	5310.7611021171
4	91269	29137.652050413517	5303.8188157903
4	91280	29145.535207864165	5311.0789942308
4	91289	29151.481551251098	5311.624513069
4	91302	29154.95660216131	5312.3896492141
4	91321	29159.399364189313	5316.6346845182
4	91392	29179.78016208152	5322.5863442502
4	91412	29183.130657140555	5311.6718995335
4	91417	29184.307820377746	5303.686870975
4	91424	29185.316563705416	5301.9021948474
4	91438	29186.917791649882	5298.2149584572
4	91445	29187.837480091036	5295.4904844664
4	91463	29199.69798426081	5300.0246590103
4	91480	29202.546881212611	5291.0313886617
4	91497	29205.737326158715	5289.5860409017
4	91514	29216.093810062845	5289.6934774519
4	91519	29218.162297349197	5285.9274982262
4	91524	29222.882747511859	5290.2232872869
4	91529	29224.738705784481	5286.387326552
4	91538	29227.123492651082	5283.7864447312
4	91569	29236.107982111778	5292.1783698834
4	91613	29247.583586286958	5302.7773130982
4	91618	29247.701133180434	5300.6971495305
4	91630	29253.760202763764	5302.2286940711
4	91641	29255.740759895648	5291.8619405233
4	91654	29262.022091577623	5289.8785103427
4	91711	29272.598259893283	5289.9618040749
4	91725	29279.853528123809	5289.4041507348
4	91736	29282.722343309162	5290.7533915296
4	91741	29283.303760763657	5277.8884627307
4	91750	29288.249168635761	5279.5377705182
4	91783	29296.18476075724	5287.2913049228
4	91792	29300.334028893657	5286.5022342757
4	91802	29302.705517977583	5287.0017037516
4	91809	29306.150697444478	5276.2672222997
4	91823	29313.02335494954	5269.4494285634
4	91828	29314.45766968647	5261.0517135667
4	91835	29316.370687439125	5261.6813411035
4	91842	29318.522175824525	5261.1847451628
4	91893	29341.821002794176	5282.9843140938
4	91900	29346.00370433635	5277.8711910812
4	91916	29353.916457707567	5285.3425884064
4	91957	29363.405117513041	5294.8200810255
4	92044	29394.972787829843	5311.0709999042
4	92052	29398.188620148192	5304.6614319386
4	92067	29401.489590737882	5306.4535295099
4	92145	29427.99060157708	5322.7192348615
4	92152	29428.634791926538	5322.5280431639
4	92165	29441.868171070026	5325.2160115922
4	92251	29468.535304137123	5347.6067839127
4	92263	29474.391866688426	5346.6493968515
4	92283	29475.376626587718	5345.9719259681
4	92290	29479.428721340149	5348.9415727475
4	92297	29481.56373364942	5345.3528739353
4	92302	29481.93634554904	5337.3593328124
4	92310	29483.412584711121	5330.1283686174
4	92319	29485.931296460272	5326.7068940678
4	92443	29531.02211465302	5370.7647689241
4	92455	29540.943928879872	5373.5773561429
4	92467	29542.786632164507	5368.3414995567
4	92474	29543.469810467237	5364.0640192944
4	92505	29553.28828629424	5357.5545226973
4	92546	29562.712808789736	5365.5487038977
4	92559	29570.914603073814	5369.12263531
4	92601	29584.002900073809	5368.0605247188
4	92617	29592.161432463453	5375.8832643674
4	92688	29615.341123372873	5388.0892394791
4	92696	29616.057885094085	5387.2608467359
4	92708	29618.078765930347	5386.7083547484
4	92721	29623.562914476893	5391.2703929844
4	92730	29630.020835705271	5394.4258510051
4	92754	29645.050375427164	5405.6357398044
4	92764	29646.444685800449	5405.4947104228
4	92780	29651.520512583282	5409.8709414564
4	92840	29671.115060231432	5423.0383752503
4	92851	29673.097512691095	5415.3746607638
4	92932	29703.790036874294	5444.7087782128
4	92968	29713.92946205364	5452.5426724061
4	92976	29715.932336939659	5453.2190198789
4	92998	29720.391668006128	5450.5945739521
4	93004	29721.580871993382	5443.395447787
4	93009	29721.654769780998	5433.3706557702
4	93016	29723.280590661631	5424.8042447177
4	93031	29732.156738710135	5428.8032249084
4	93114	29747.22853900428	5436.448290886
4	93120	29748.400060236906	5434.1828487928
4	93128	29754.436776003972	5437.7032910636
4	93148	29761.098915473151	5439.4118765615
4	93159	29766.934452278687	5444.6848325406
4	93192	29781.480899054853	5458.0886437181
4	93221	29789.489029901159	5465.1751225093
4	93234	29798.780619872128	5467.5952080713
4	93272	29815.345478169319	5458.1496381845
4	93281	29821.79619640056	5459.1459686434
4	93327	29839.304883050785	5476.2493814784
4	93353	29847.474689034949	5481.6552176922
4	93360	29850.76981294569	5484.6142161446
4	93392	29862.359689181797	5492.5689605482
4	93421	29872.080679225366	5500.6203379859
4	93434	29875.315412435577	5499.1821570407
4	93444	29875.871717344619	5485.0899273198
4	93478	29881.401974413999	5485.6051022287
4	93483	29882.225793624728	5479.8550270859
4	93491	29883.823237570336	5477.5882885086
4	93498	29888.288689392846	5461.6609229883
4	93505	29889.418814886712	5461.225630208
4	93532	29904.198841165033	5474.003349702
4	93560	29912.836395186597	5481.1757904233
4	93570	29916.247161219074	5480.3018201845
4	93639	29938.146109486521	5496.87973693
4	93644	29938.512190443668	5494.867692626
4	93649	29939.618135276397	5487.8259962474
4	93658	29941.438123893455	5483.9824791721
4	93676	29944.698144462124	5486.2809458539
4	93684	29951.170846431173	5490.6009927917
4	93689	29954.930996231721	5490.2972864985
4	93700	29964.791384667341	5486.6224737028
4	93728	29972.852764692909	5492.5628173953
4	93739	29974.735131699474	5494.4355039113
4	93764	29981.345831189068	5496.7802448163
4	93775	29984.148649381938	5486.6482296545
4	93785	29988.496138520518	5489.2738799886
4	93800	29993.42971105311	5488.9937509914
4	93809	29996.509384841387	5483.2531717388

