version 2
run Third-n2-15-20191016-14:53:52-13192
attr configname Third-n2
attr datetime 20191016-14:53:52
attr experiment Third-n2
attr inifile omnetpp.ini
attr iterationvars ""
attr iterationvarsf ""
attr measurement ""
attr network org.omnetpp.queueing.Pizza
attr processid 13192
attr repetition 15
attr replication ""
attr resultdir results
attr runnumber 15
attr seedset 15
param **.PS.maxInventoriedPS 2
param **.U1.interArrivalTime exponential(4s)
param **.U2.interArrivalTime exponential(6s)
param **.PS.serviceTimeForInventoryU1 exponential(1.4s)
param **.PS.serviceTimeForInventoryU2 exponential(1.4s)
param **.PS.serviceTimeDirectU1 exponential(1.8s)
param **.PS.serviceTimeDirectU2 exponential(1.8s)
param **.PS.probabilityProducing 0.8
param **.CS.serviceTimeU1 exponential(2.3s)
param **.CS.serviceTimeU2 exponential(2.3s)

vector 0 Pizza.EntryQueueU1 queueLength:vector ETV
attr interpolationmode sample-hold
attr title "queue length, vector"
vector 1 Pizza.CS queueLength:vector ETV
attr interpolationmode sample-hold
attr title "queue length, vector"
vector 2 Pizza.EntryQueueU2 queueLength:vector ETV
attr interpolationmode sample-hold
attr title "queue length, vector"
vector 3 Pizza.sink lifeTime:vector ETV
attr interpolationmode none
attr title "lifetime of arrived jobs, vector"
attr unit s
vector 4 Pizza.sink lifeTimeU2:vector ETV
attr interpolationmode none
attr title "lifetime of arrived jobs, vector"
attr unit s
0	0	0	0
0	5	8.345496996421	1
0	7	8.569083940082	2
0	9	9.039654571862	3
0	17	10.834429848333	4
0	23	15.176464933403	3
0	28	15.252445976091	2
0	36	15.925222711067	3
0	38	18.1620517633	2
0	47	22.286008878645	1
0	53	22.799902733481	0
0	64	23.95638713054	1
0	65	24.083137209899	0
0	74	26.522208716878	1
0	76	27.557381630016	2
0	78	28.021030701127	3
0	85	30.618741690275	4
0	86	31.10448928406	3
0	92	32.039723586281	4
0	97	33.173512613902	3
0	102	34.426313020999	2
0	106	36.421722531494	3
0	109	36.89247599848	2
0	118	38.486699868435	3
0	123	40.339386897221	2
0	128	40.666664504214	1
0	135	41.352117840796	0
0	141	42.042460460683	1
0	142	42.307807591114	0
0	150	43.642973579016	1
0	151	45.653085962045	0
0	175	54.046793708762	1
0	179	55.529703902384	2
0	180	56.809929824417	1
0	191	60.730501528878	2
0	192	62.369395953136	1
0	199	64.372175588528	2
0	200	64.496921893115	1
0	206	65.410406686462	0
0	220	71.317832810339	1
0	221	71.442726786178	0
0	235	75.366465411815	1
0	237	76.814098393815	2
0	239	77.031674494691	3
0	240	77.235763910812	2
0	245	77.598061795245	1
0	251	78.431587417717	2
0	252	78.519212339603	1
0	258	80.295527665772	2
0	259	80.976333541792	1
0	264	82.128647211727	0
0	290	90.388490920156	1
0	291	93.965969825238	0
0	314	99.587942542359	1
0	316	99.946605194863	2
0	319	101.417067367621	1
0	324	102.3179527562	0
0	331	103.108225825874	1
0	333	103.112598719337	2
0	334	103.993629223966	1
0	341	106.66930930817	0
0	352	108.869908519702	1
0	358	113.781429316728	2
0	360	118.37711273886	3
0	365	120.766816476239	2
0	370	121.084896169827	1
0	380	124.829004332295	0
0	394	127.323658028903	1
0	399	127.786365729883	2
0	400	128.618981856661	1
0	407	130.993947169176	2
0	409	130.996300248808	3
0	411	131.691503674067	4
0	414	135.556804696362	3
0	419	135.61615875354	2
0	426	139.460346880931	1
0	433	141.707573809139	0
0	445	145.358002536279	1
0	447	146.162012748365	2
0	449	146.680131924686	3
0	456	151.578001960165	4
0	458	151.679545680196	5
0	460	153.35773082138	6
0	461	161.377706359868	5
0	466	163.410728081479	4
0	471	165.430574134276	3
0	475	165.734767914352	4
0	479	169.563712055161	5
0	481	171.033006178331	6
0	483	171.362315292192	7
0	488	175.216123529529	8
0	490	175.565906486144	9
0	493	176.296871062415	10
0	495	176.636375214229	9
0	500	176.914068505323	8
0	506	177.190820694801	9
0	508	177.465852806375	10
0	509	177.572565233374	9
0	514	179.043824846095	8
0	519	180.339368205	7
0	528	190.602901031338	6
0	534	191.064126369724	7
0	536	191.948860969614	8
0	537	192.274035140385	7
0	543	193.476576779209	8
0	544	194.027749299579	7
0	550	196.461813551474	8
0	557	197.416052291429	7
0	563	198.93878958716	6
0	569	201.846601662578	5
0	574	202.243638997872	4
0	579	202.585216712228	3
0	587	208.514206508236	4
0	588	209.131410536619	3
0	593	210.486572248844	2
0	598	214.074315199564	1
0	604	214.378986657693	2
0	609	219.289506774755	1
0	614	221.20539018411	0
0	660	240.198805022676	1
0	666	245.136916889681	2
0	668	245.217901799359	3
0	669	245.320469617166	2
0	675	246.364747477927	1
0	681	248.000767832196	0
0	692	251.279215789152	1
0	693	254.511649327175	0
0	702	256.485462693049	1
0	705	260.518171970621	0
0	728	269.221755472141	1
0	730	269.250525106866	2
0	732	270.806961064411	3
0	733	271.286128822224	2
0	740	276.049130378594	3
0	742	277.256348717618	4
0	743	277.258468361087	3
0	748	277.385000588409	2
0	753	277.960921533144	1
0	758	279.552966197728	0
0	781	283.800109232134	1
0	787	287.920541924174	0
0	806	294.344850740331	1
0	810	298.499244332929	2
0	811	299.966779801869	1
0	817	302.597563559199	2
0	820	304.758421120503	3
0	823	306.753511305129	4
0	826	308.806988809436	3
0	832	312.086479869395	2
0	838	312.420273827706	1
0	846	312.589162762086	0
0	853	315.635082256416	1
0	855	315.956242910392	2
0	856	316.956342554578	1
0	862	317.110690056588	2
0	863	317.499326663641	1
0	872	319.689339500272	2
0	873	321.506297103228	1
0	878	322.207175351626	0
0	885	324.48365454494	1
0	889	325.460027547729	2
0	890	327.358691846244	1
0	895	327.362016847895	0
0	899	329.482455519827	1
0	902	331.265104938812	0
0	943	340.296603696051	1
0	944	340.777031457886	0
0	951	341.565241257025	1
0	952	342.620200430339	0
0	977	349.152995994236	1
0	980	349.40366110337	0
0	996	353.517154616423	1
0	1005	359.519526142797	0
0	1012	360.59145723385	1
0	1014	362.923589481402	0
0	1021	365.986026253603	1
0	1023	370.254654757179	2
0	1024	370.64545877072	1
0	1033	372.706418392246	2
0	1034	373.005046872804	1
0	1040	374.093269820696	0
0	1051	376.893223452603	1
0	1052	377.594608410566	0
0	1067	379.760718942377	1
0	1072	381.357781048696	0
0	1079	384.86480479529	1
0	1080	385.261531515761	0
0	1090	390.446619247681	1
0	1091	392.812492975184	0
0	1114	404.01041923119	1
0	1116	404.666875526409	2
0	1118	405.853232162747	3
0	1119	406.572082114249	2
0	1125	407.61164191446	1
0	1131	411.407483130273	0
0	1142	411.904032838736	1
0	1146	413.762043633791	2
0	1147	415.205653708524	1
0	1156	417.942492947098	0
0	1173	422.898473750294	1
0	1174	423.480382267052	0
0	1187	426.879501219011	1
0	1189	427.055375105996	2
0	1193	428.784854733926	3
0	1195	429.784997361448	2
0	1201	430.353041014371	3
0	1204	430.595289731928	2
0	1209	430.712392872873	1
0	1214	431.262160084233	0
0	1218	433.004304480024	1
0	1220	433.225852113328	2
0	1224	433.688186826098	3
0	1230	439.315690687477	2
0	1238	440.628088691344	3
0	1242	442.514866135429	4
0	1243	445.845794693553	3
0	1248	448.123943033176	2
0	1253	449.022039281923	1
0	1263	452.026259053152	2
0	1264	452.555909177354	1
0	1271	458.905650879976	0
0	1291	462.848934335897	1
0	1296	465.099054562641	0
0	1303	467.189331957677	1
0	1305	467.195458953781	2
0	1307	468.373355945897	1
0	1313	469.19844108413	2
0	1314	469.860677916725	1
0	1318	470.662500549151	2
0	1324	473.91353267894	3
0	1326	474.953632965882	4
0	1328	476.194869846529	5
0	1330	478.304721713635	6
0	1331	478.394280983596	5
0	1336	480.857281247431	4
0	1340	483.129714117857	5
0	1342	483.716765056757	6
0	1346	488.227368152449	5
0	1352	488.605574643883	6
0	1354	489.277598892848	7
0	1361	491.105572098254	6
0	1370	493.607543913874	7
0	1372	495.084097915934	8
0	1375	498.84006303085	7
0	1380	499.027771168539	6
0	1386	505.790206642971	7
0	1387	508.621089003052	6
0	1395	513.601896596063	5
0	1403	513.854842366961	6
0	1404	514.587740716697	5
0	1409	516.227337517644	4
0	1415	517.450434710847	3
0	1421	520.004917934901	2
0	1426	520.487923613897	1
0	1432	522.386267729204	2
0	1434	522.713123625577	1
0	1440	522.744232473861	2
0	1443	526.473119224912	1
0	1448	527.522765953889	0
0	1469	530.903778893529	1
0	1472	536.291335920438	0
0	1479	537.326050913069	1
0	1481	537.405836915204	2
0	1482	539.425815252634	1
0	1488	540.204185108525	0
0	1494	540.9912502705	1
0	1496	541.198305950611	0
0	1518	543.075761326029	1
0	1523	544.362198123298	0
0	1569	554.354633753	1
0	1572	554.862154520536	0
0	1607	566.475777195663	1
0	1609	569.039180470268	2
0	1612	571.125616301131	1
0	1624	575.919721907871	0
0	1631	577.551714479229	1
0	1632	580.723777427314	0
0	1649	584.646464730458	1
0	1650	585.090767288198	0
0	1656	585.146244478669	1
0	1660	586.287838909368	0
0	1672	588.852352630846	1
0	1674	589.59069285589	2
0	1676	589.632205015439	3
0	1678	589.79436093048	4
0	1680	591.669431802447	5
0	1681	592.309585214405	4
0	1691	593.36718966359	5
0	1692	593.974566104802	4
0	1699	595.10359271943	5
0	1701	595.237613431545	4
0	1706	595.658659192824	3
0	1712	596.799249767642	4
0	1714	597.41460177185	3
0	1720	597.871343733225	4
0	1722	598.416016563981	5
0	1725	599.47918684104	4
0	1731	600.890018656737	3
0	1737	602.495930278566	4
0	1739	602.597581591847	5
0	1741	603.045213564088	6
0	1744	604.613122856798	7
0	1745	604.845734905001	6
0	1750	605.183187089071	5
0	1761	605.671045071099	4
0	1772	608.187077990591	5
0	1773	609.418070918927	4
0	1779	609.960480594356	5
0	1781	611.002651220307	4
0	1789	613.157874022259	3
0	1795	614.513836498891	4
0	1801	619.373916636523	5
0	1803	620.249078440339	6
0	1804	621.630405689922	5
0	1808	621.878759926597	6
0	1812	624.477734274417	5
0	1817	624.637846708562	4
0	1821	626.181971246436	5
0	1833	628.957580219859	6
0	1834	629.220104476159	5
0	1843	630.26327261957	4
0	1850	630.491595369507	5
0	1852	630.77909567435	6
0	1855	632.291118924617	7
0	1856	632.329072015555	6
0	1864	634.214693576237	5
0	1871	635.224204399036	6
0	1874	638.434247789262	5
0	1880	638.615621364906	4
0	1887	639.430513181159	5
0	1889	642.098107447448	6
0	1891	642.531184571917	7
0	1894	645.26461681612	6
0	1899	645.554964255724	5
0	1906	646.389947616671	4
0	1912	647.060081899642	5
0	1913	647.68296644493	4
0	1922	649.05780937497	3
0	1928	653.761370270332	2
0	1937	656.394155815832	1
0	1944	657.780260740362	2
0	1945	658.418616163754	1
0	1952	659.517450758607	0
0	1963	660.748264556224	1
0	1964	661.069991876961	0
0	1968	661.985045647992	1
0	1972	664.417055194606	2
0	1973	665.269296049095	1
0	1979	666.091833358606	2
0	1983	666.86611569489	1
0	1987	666.926860125827	2
0	1991	667.22120537693	3
0	1992	668.562586870942	2
0	1996	669.017658103693	3
0	2006	672.76604554563	4
0	2007	673.528139369207	3
0	2013	675.002329136618	2
0	2019	675.925675831563	1
0	2025	676.497144810302	2
0	2028	679.390201336688	3
0	2030	680.158717832046	4
0	2031	680.848539224601	3
0	2036	681.316542801754	2
0	2042	683.16048361901	1
0	2047	683.244531176011	0
0	2077	690.004851205271	1
0	2079	691.005575608288	2
0	2080	691.175044595627	1
0	2091	694.262121379902	0
0	2098	697.808183659181	1
0	2099	698.666697851621	0
0	2111	703.08477265147	1
0	2117	705.657253752454	2
0	2121	706.423091898879	1
0	2126	706.935774574478	0
0	2140	708.418190773764	1
0	2144	710.877517321624	2
0	2147	711.643312562014	3
0	2148	712.683663634092	2
0	2155	712.923856161995	3
0	2156	713.553477353161	2
0	2163	717.04691958555	1
0	2167	717.489252304053	2
0	2170	717.866236633224	1
0	2175	718.113204035667	0
0	2181	718.473100554227	1
0	2182	719.239862312042	0
0	2193	727.02792943282	1
0	2199	731.08225957574	2
0	2201	733.843338012551	3
0	2204	739.344334635582	2
0	2211	740.937594156605	3
0	2213	744.553119411191	4
0	2215	744.931157634779	5
0	2217	745.107930880813	6
0	2220	749.400344503172	5
0	2226	750.021806779427	4
0	2233	752.861064162916	3
0	2239	752.897262079906	4
0	2241	753.524058833072	5
0	2242	754.862960107981	4
0	2248	755.39555581228	3
0	2254	755.60804299602	4
0	2255	755.957002052746	3
0	2259	756.317045016423	4
0	2266	759.104258655268	5
0	2269	764.890663603727	6
0	2271	765.765044107885	7
0	2272	766.097984156663	6
0	2278	766.304498444673	7
0	2279	766.730846731389	6
0	2286	768.628601669093	7
0	2287	769.715259487073	6
0	2294	770.065054632877	7
0	2297	771.148508708372	8
0	2298	771.237126222162	7
0	2308	775.804407079144	6
0	2316	778.037972597964	5
0	2322	779.013191149167	4
0	2331	786.232666454759	5
0	2334	786.616889833505	4
0	2342	788.996553682851	5
0	2344	789.685311015587	6
0	2346	791.604969747423	7
0	2348	792.159049915765	8
0	2352	794.214364140742	9
0	2354	796.223139631913	10
0	2356	798.994096469761	11
0	2357	799.518744689094	10
0	2362	799.764872721624	9
0	2368	800.261236841656	8
0	2375	805.567217823058	7
0	2381	806.098520890212	6
0	2387	807.134824026073	5
0	2392	807.570162266379	4
0	2399	810.515301862914	3
0	2406	812.061363391936	2
0	2413	813.157286343762	3
0	2416	814.035534615476	4
0	2418	814.945451270713	5
0	2419	816.709344559666	4
0	2424	817.847440617211	3
0	2429	819.068940069206	2
0	2433	819.38717628452	3
0	2438	821.983264725912	4
0	2439	822.305219764711	3
0	2447	824.245770883081	4
0	2455	829.514098835898	5
0	2456	831.810911570132	4
0	2461	832.372022021613	3
0	2467	832.915467695173	2
0	2473	833.179531498408	3
0	2476	834.888924160334	4
0	2479	837.065769793235	5
0	2480	839.882044887897	4
0	2486	842.630260194492	5
0	2489	845.102514837602	6
0	2490	845.91792248541	5
0	2501	849.068561205208	6
0	2502	849.187817442078	5
0	2508	850.446422256585	6
0	2512	854.362146085859	7
0	2513	856.584477957846	6
0	2523	859.704962161032	7
0	2525	860.174879291595	6
0	2531	860.72967033508	7
0	2532	860.784358155137	6
0	2537	861.328480468365	5
0	2541	863.516882977498	6
0	2543	863.587891670296	7
0	2545	865.11750834281	8
0	2549	866.166115827349	9
0	2550	868.395237552826	8
0	2554	868.76654351672	9
0	2557	871.703188882457	8
0	2565	875.043611622094	9
0	2566	875.165792918681	8
0	2572	877.551267861051	7
0	2580	879.854877778704	6
0	2586	880.783373916512	5
0	2592	881.922992008173	6
0	2593	882.431836738764	5
0	2598	882.998823789282	4
0	2606	884.903244172139	5
0	2608	884.93603637204	6
0	2610	887.2111751605	7
0	2613	888.887656093899	6
0	2620	893.723809699578	7
0	2624	899.554437082116	8
0	2625	900.040027536045	7
0	2632	901.329916632448	6
0	2637	901.782181949857	5
0	2644	904.082181926827	6
0	2646	905.274911649077	5
0	2652	907.386469718403	4
0	2659	908.011450186312	5
0	2660	909.229970889611	4
0	2665	910.581087065108	3
0	2670	913.602553084769	2
0	2675	917.159736521938	1
0	2682	918.331932753239	0
0	2688	922.36157379729	1
0	2689	922.622481743029	0
0	2714	927.926801756807	1
0	2716	928.103198686083	2
0	2721	929.939795362031	3
0	2724	931.046818665494	2
0	2730	931.925376413359	3
0	2731	933.098002124302	2
0	2739	934.253410203374	3
0	2740	934.851340626331	2
0	2746	935.469327058842	1
0	2754	937.585861988203	0
0	2768	942.093750705323	1
0	2769	942.379117816141	0
0	2811	956.136168693611	1
0	2812	960.092632150085	0
0	2818	960.777044237485	1
0	2820	962.036826992263	2
0	2822	964.196615649276	1
0	2831	964.418700357355	2
0	2832	965.417277927751	1
0	2838	965.716229009248	2
0	2839	965.760348004262	1
0	2846	966.381671797301	2
0	2847	966.527653246616	1
0	2853	968.019810288978	0
0	2866	973.866823860432	1
0	2869	977.061956924224	0
0	2884	984.56512691371	1
0	2886	985.158388549973	2
0	2887	985.975897040975	1
0	2892	986.448058886918	0
0	2918	994.189693758634	1
0	2924	995.037492046642	2
0	2925	995.424523112855	1
0	2932	995.714083203433	2
0	2934	996.200306353649	3
0	2935	996.924206770212	2
0	2941	997.481425164797	3
0	2943	997.493220252122	4
0	2944	999.443656732729	3
0	2950	1001.407344273018	4
0	2951	1002.226481367169	3
0	2958	1003.926233250694	2
0	2964	1005.966482266249	3
0	2968	1008.49738882927	2
0	2975	1009.39590525759	1
0	2979	1010.170277997154	2
0	2986	1014.002180048099	1
0	2992	1014.345512768639	2
0	2993	1015.139472399738	1
0	3000	1015.779210852078	2
0	3004	1017.587338395181	1
0	3010	1017.595165734599	2
0	3011	1019.221348372264	1
0	3017	1021.194426049116	0
0	3032	1028.99584715647	1
0	3034	1029.218341956521	2
0	3037	1032.653507008346	1
0	3044	1034.590537093657	0
0	3062	1036.166158583913	1
0	3064	1037.655775534058	2
0	3066	1039.87304247256	1
0	3076	1041.925877075455	2
0	3077	1042.952773076738	1
0	3084	1047.354502324832	0
0	3105	1054.557817562194	1
0	3106	1055.216607889058	0
0	3115	1058.488116416575	1
0	3117	1060.823690866928	2
0	3127	1063.087203370127	3
0	3130	1063.831010605372	4
0	3131	1064.192626493427	3
0	3140	1067.478666965214	4
0	3141	1070.83559401821	3
0	3146	1070.963946962466	2
0	3152	1071.132842216332	3
0	3155	1076.916539715224	2
0	3161	1076.996346901781	1
0	3167	1077.891868501766	2
0	3169	1081.749616054155	1
0	3175	1082.429101578575	0
0	3186	1083.158296988571	1
0	3188	1083.541296496203	0
0	3194	1083.955838407605	1
0	3200	1085.071411905493	0
0	3209	1086.966376262128	1
0	3210	1087.43927611003	0
0	3231	1097.821381100467	1
0	3237	1101.93981101051	2
0	3238	1102.310975241076	1
0	3243	1102.487908926977	0
0	3265	1109.054188625529	1
0	3267	1117.044149752476	2
0	3269	1119.850885694311	3
0	3271	1120.693258338599	4
0	3272	1120.748390992236	3
0	3279	1123.539480185754	4
0	3280	1125.144698483737	3
0	3289	1128.953405157194	2
0	3295	1129.930949651069	3
0	3297	1130.747821956418	2
0	3304	1131.992425303705	1
0	3311	1134.896108652534	0
0	3332	1137.430679875523	1
0	3336	1140.443028649609	2
0	3341	1141.53274170898	1
0	3348	1143.428367855998	2
0	3351	1145.200965937326	1
0	3358	1146.569243133163	0
0	3385	1159.142746333846	1
0	3387	1160.096357063026	2
0	3390	1162.133616972207	1
0	3396	1163.052244596436	2
0	3397	1163.065891026961	1
0	3402	1164.220173733918	0
0	3417	1166.473843125086	1
0	3421	1168.871688062736	0
0	3428	1170.273346505058	1
0	3430	1173.235851150275	0
0	3454	1177.064726464954	1
0	3457	1177.518107587178	0
0	3491	1191.5808709572	1
0	3492	1192.208074526521	0
0	3500	1194.149444890393	1
0	3502	1195.797383750294	0
0	3513	1198.474241711483	1
0	3515	1198.69871368387	2
0	3517	1199.689268932128	3
0	3522	1205.603270708189	2
0	3528	1206.254616028292	1
0	3533	1206.406185749823	0
0	3544	1209.12814774393	1
0	3546	1211.213572057079	2
0	3548	1214.347066232063	1
0	3553	1217.527639287092	0
0	3569	1221.493942989266	1
0	3570	1222.977125567954	0
0	3577	1223.959267642317	1
0	3582	1225.787996285358	2
0	3584	1227.96464005414	3
0	3586	1228.070301162937	4
0	3589	1229.812594544903	3
0	3596	1234.42046665252	4
0	3597	1234.983070711793	3
0	3603	1237.304716357124	2
0	3609	1238.548123180794	3
0	3612	1241.48042267252	4
0	3614	1243.7037202767	5
0	3615	1244.349421456841	4
0	3620	1244.73791071806	3
0	3627	1247.223121469544	2
0	3634	1248.478749404791	3
0	3636	1249.181372129516	4
0	3637	1252.393215122135	3
0	3642	1252.855141736963	2
0	3649	1259.260525306952	1
0	3657	1261.191845592941	0
0	3670	1263.736086459293	1
0	3672	1264.807068174229	2
0	3673	1266.8990942752	1
0	3681	1269.631365840478	0
0	3699	1275.289005281749	1
0	3701	1275.590977586507	2
0	3702	1278.833458862339	1
0	3709	1279.571636736904	0
0	3722	1282.010828993857	1
0	3723	1282.2264947171	0
0	3731	1283.501698761294	1
0	3733	1284.758494414326	0
0	3742	1286.833357299456	1
0	3744	1288.569254374243	2
0	3746	1290.748236883491	3
0	3747	1293.260349086463	2
0	3753	1293.737281229362	1
0	3758	1293.869587149997	0
0	3775	1301.920790412422	1
0	3782	1309.304077561238	0
0	3794	1310.30681440653	1
0	3796	1310.450434973172	2
0	3800	1312.337945372409	1
0	3808	1315.167713663567	0
0	3820	1317.157134145718	1
0	3826	1317.852376300738	0
0	3839	1321.041878565667	1
0	3841	1325.965078428452	2
0	3842	1326.418304019383	1
0	3847	1327.325827716182	0
0	3863	1330.551231540744	1
0	3870	1335.086075875046	0
0	3876	1335.11095692635	1
0	3877	1335.629358917833	0
0	3893	1343.827445279299	1
0	3894	1345.246991136988	0
0	3913	1355.64844706709	1
0	3915	1355.687812868164	2
0	3920	1357.882463934731	1
0	3928	1360.824406419909	2
0	3930	1364.266484053063	3
0	3933	1369.780279163895	2
0	3939	1372.269653162432	1
0	3945	1372.281306729461	2
0	3949	1373.548023774395	3
0	3951	1373.797719848494	4
0	3954	1377.016550241785	5
0	3955	1379.363459628511	4
0	3961	1386.930018151199	3
0	3967	1387.244802852199	2
0	3973	1388.018311448693	3
0	3976	1388.225101188877	4
0	3977	1390.52582943431	3
0	3985	1392.382848417873	4
0	3988	1395.5006965535	3
0	3994	1396.29945558109	2
0	4000	1396.39026147228	3
0	4002	1398.143571753589	4
0	4004	1398.367844328915	5
0	4007	1399.624654244157	4
0	4015	1400.285832060779	3
0	4023	1404.015918159573	4
0	4024	1404.994196476509	3
0	4031	1408.41589257954	2
0	4036	1409.651943064022	1
0	4048	1417.495739959534	2
0	4050	1417.664181078579	3
0	4053	1418.814628878585	2
0	4059	1419.14732368458	3
0	4060	1419.622823229326	2
0	4065	1419.756920847193	1
0	4072	1424.086012572495	2
0	4074	1427.132850300878	1
0	4082	1430.825450468637	0
0	4104	1435.184414413749	1
0	4111	1440.706922957644	0
0	4119	1442.131955815672	1
0	4120	1443.021195821117	0
0	4132	1447.558035337046	1
0	4135	1449.54818067002	2
0	4136	1450.063691211798	1
0	4142	1450.979342836253	0
0	4153	1452.491493856212	1
0	4155	1454.603237169397	0
0	4172	1457.895316210456	1
0	4175	1460.372892347781	0
0	4181	1460.398493621083	1
0	4183	1460.911263359381	0
0	4214	1465.905484513844	1
0	4217	1467.10982541646	0
0	4239	1478.522838617398	1
0	4241	1478.775259856101	2
0	4244	1482.767268971685	1
0	4249	1483.69439331532	0
0	4260	1483.914007057024	1
0	4264	1485.674354175446	2
0	4267	1486.305327364467	3
0	4271	1487.637445226956	2
0	4281	1499.860186171229	3
0	4282	1501.000447573197	2
0	4290	1503.878112874014	3
0	4291	1504.862476556033	2
0	4299	1510.101421068298	1
0	4305	1511.024075672009	0
0	4311	1511.198193165157	1
0	4315	1512.051492083275	0
0	4324	1514.512072815443	1
0	4326	1514.89210743287	2
0	4332	1518.844939555758	3
0	4334	1521.011345979808	4
0	4335	1521.508202052796	3
0	4342	1521.804209276161	4
0	4343	1521.989506044959	3
0	4348	1522.395490462464	2
0	4355	1522.899197101073	3
0	4357	1524.971978983733	2
0	4362	1524.990493213333	1
0	4370	1526.408927286694	2
0	4373	1527.245357169093	1
0	4377	1527.527598777176	2
0	4380	1528.80895155798	1
0	4385	1529.813989370874	0
0	4389	1534.34470974569	1
0	4392	1539.162465269702	0
0	4422	1552.712694804173	1
0	4425	1555.089891707062	0
0	4432	1558.182261962146	1
0	4433	1559.125284733128	0
0	4443	1560.156091774539	1
0	4448	1561.629028729891	0
0	4460	1565.661947484443	1
0	4461	1569.040658521602	0
0	4491	1581.874399285003	1
0	4493	1585.642600045819	2
0	4494	1586.876493060191	1
0	4503	1590.282568461691	2
0	4504	1593.295233029561	1
0	4510	1593.486361463959	2
0	4511	1593.985246769148	1
0	4516	1594.434308312769	0
0	4525	1595.260169375051	1
0	4527	1595.540969223577	2
0	4532	1597.720878161265	1
0	4537	1598.7212466049	0
0	4568	1609.295452448455	1
0	4570	1611.02278691349	2
0	4571	1611.039651542982	1
0	4577	1612.385628435783	0
0	4586	1613.839037024404	1
0	4588	1614.016536723419	2
0	4592	1615.003354107826	3
0	4595	1616.679365318158	2
0	4600	1616.952487064165	1
0	4604	1617.478735640523	2
0	4612	1622.000485639249	3
0	4615	1623.541201366819	4
0	4619	1624.295479851914	5
0	4623	1629.936427442453	4
0	4634	1633.124250554408	5
0	4638	1635.692274562579	6
0	4639	1635.859001014684	5
0	4645	1640.111138374282	6
0	4647	1640.19939655188	7
0	4648	1640.562375777629	6
0	4653	1640.690667286302	5
0	4659	1642.765271165662	6
0	4664	1646.310204262573	5
0	4670	1646.437352627123	6
0	4672	1650.03387792212	5
0	4678	1651.525713346559	4
0	4683	1654.727240575879	3
0	4688	1654.896059842022	2
0	4693	1655.901941983865	1
0	4698	1657.567989072985	0
0	4714	1660.119625155694	1
0	4715	1660.796161317923	0
0	4774	1682.797058961914	1
0	4776	1682.968817448315	2
0	4777	1683.708516029371	1
0	4783	1683.850715842881	2
0	4785	1684.441694902647	3
0	4787	1685.700041343247	2
0	4793	1685.757773844633	3
0	4795	1687.15896185999	2
0	4801	1688.929857762752	3
0	4803	1690.399673430981	2
0	4811	1692.400732193206	3
0	4813	1695.143703615952	4
0	4814	1695.444213305553	3
0	4820	1695.92094894545	4
0	4822	1697.803180517175	5
0	4823	1698.753137876289	4
0	4829	1699.27807639988	5
0	4831	1699.684422678992	4
0	4837	1702.363830818543	3
0	4843	1703.40021770762	2
0	4851	1704.896213570234	3
0	4852	1705.930471005548	2
0	4858	1706.689107866223	3
0	4859	1707.359154521187	2
0	4864	1707.399781959902	1
0	4875	1709.469692323444	2
0	4877	1711.210123479126	3
0	4878	1711.33728288797	2
0	4883	1711.748766054743	1
0	4891	1714.885619777731	2
0	4892	1716.065766257644	1
0	4898	1716.635596594165	2
0	4900	1717.84192140948	3
0	4902	1718.906668942965	4
0	4904	1719.060313102147	5
0	4906	1719.640629268675	6
0	4907	1723.32477443046	5
0	4913	1726.856527350872	6
0	4914	1728.640245187847	5
0	4918	1731.350871445702	6
0	4924	1737.914729884792	5
0	4932	1739.02665497609	6
0	4934	1741.145873097882	7
0	4935	1741.278110144697	6
0	4940	1741.743537295056	5
0	4949	1745.048997348179	6
0	4954	1746.219534801731	5
0	4960	1746.688753925397	6
0	4963	1749.304941394146	5
0	4971	1750.459015029737	6
0	4973	1750.952220976493	7
0	4977	1753.177271274368	6
0	4985	1756.054613955658	5
0	4990	1756.570501751546	4
0	4996	1757.788182122585	3
0	5001	1757.932639518464	2
0	5010	1765.155696770283	1
0	5015	1765.360735186285	0
0	5041	1771.830947815858	1
0	5044	1772.783992133591	0
0	5065	1782.182888876844	1
0	5066	1782.61136475042	0
0	5072	1783.752018729502	1
0	5073	1783.77030916368	0
0	5100	1796.777515186931	1
0	5102	1798.437467783146	2
0	5104	1800.476284893403	1
0	5111	1801.28900866803	0
0	5146	1818.374085698488	1
0	5147	1820.610758128637	0
0	5154	1821.010524620095	1
0	5156	1821.641262834477	0
0	5162	1821.722426411218	1
0	5167	1823.139749270167	2
0	5168	1823.951893794656	1
0	5174	1824.168173212821	0
0	5185	1824.776495661989	1
0	5186	1825.025719552633	0
0	5199	1825.544700696813	1
0	5201	1828.328199291922	2
0	5204	1830.330193901197	1
0	5211	1832.785564274284	0
0	5240	1841.959972646072	1
0	5241	1842.686627315772	0
0	5247	1844.188802642598	1
0	5253	1847.022654043415	0
0	5270	1850.135314531193	1
0	5271	1851.593902909496	0
0	5280	1853.677451934151	1
0	5282	1854.606991731542	2
0	5286	1857.979903940859	1
0	5291	1858.614667880476	0
0	5295	1860.339444225852	1
0	5297	1860.780907975991	2
0	5303	1862.553381585115	3
0	5305	1863.396314161015	4
0	5306	1863.538006831583	3
0	5313	1868.099009407651	2
0	5318	1869.246757696193	1
0	5323	1871.260831161798	0
0	5341	1875.546336626503	1
0	5343	1875.820007282242	2
0	5346	1877.764797625006	1
0	5354	1880.039680578875	0
0	5390	1895.125791084864	1
0	5396	1896.222498576505	2
0	5398	1900.032739012264	3
0	5399	1901.23178530453	2
0	5407	1904.460786910836	1
0	5418	1906.634225126645	2
0	5419	1906.936328463088	1
0	5426	1908.542901084548	0
0	5432	1908.61226410574	1
0	5433	1909.218492022196	0
0	5437	1909.421351164396	1
0	5439	1911.234081236118	2
0	5441	1912.49788731581	3
0	5443	1915.04165191634	4
0	5448	1917.60821226413	3
0	5455	1920.880455099719	2
0	5461	1920.966440401608	3
0	5462	1921.410946307233	2
0	5470	1921.938258623011	3
0	5471	1922.198324714377	2
0	5478	1925.608567714842	1
0	5487	1926.37783010771	2
0	5488	1927.877008282108	1
0	5493	1928.953293173854	0
0	5514	1934.498265594069	1
0	5515	1936.382212031482	0
0	5538	1941.922095016826	1
0	5539	1942.449062162234	0
0	5545	1942.684726768286	1
0	5546	1944.081407085731	0
0	5552	1944.384018588891	1
0	5553	1944.636678549776	0
0	5557	1945.515728697782	1
0	5561	1947.340355603963	2
0	5564	1949.537395284349	1
0	5572	1953.750388804335	0
0	5582	1954.119891516024	1
0	5586	1954.844595882346	2
0	5589	1955.355058234476	1
0	5595	1956.721392639345	0
0	5613	1963.485955041387	1
0	5615	1963.641901580129	2
0	5616	1965.501364979849	1
0	5621	1965.812452139183	0
0	5630	1966.218207542363	1
0	5636	1967.559469673606	2
0	5640	1969.061197592839	1
0	5645	1969.562920607054	0
0	5665	1973.936665712609	1
0	5667	1974.073402104474	2
0	5668	1974.074194342438	1
0	5673	1974.588129392962	0
0	5680	1975.929072727048	1
0	5683	1979.293447610586	0
0	5689	1979.569622353362	1
0	5692	1980.767699619013	2
0	5694	1981.402187008609	3
0	5696	1982.407997819136	2
0	5701	1982.499786324699	1
0	5707	1983.065586586365	0
0	5716	1983.574837547175	1
0	5722	1989.672024656725	0
0	5728	1990.04632142021	1
0	5729	1990.972233347266	0
0	5737	1993.451698272055	1
0	5738	1993.60270962385	0
0	5759	2000.014797906653	1
0	5763	2000.756018726251	2
0	5765	2001.199790919364	3
0	5767	2001.321613504049	4
0	5768	2001.366116882162	3
0	5775	2002.082457900105	4
0	5777	2002.427127748483	5
0	5781	2003.132252436453	6
0	5784	2004.542533166921	7
0	5786	2006.811107955017	8
0	5787	2007.243786355548	7
0	5792	2007.350154263822	6
0	5797	2008.399214888638	5
0	5805	2013.689234679182	4
0	5812	2015.092838589722	3
0	5818	2015.693659490541	4
0	5821	2018.255293642778	5
0	5822	2019.201416825287	4
0	5827	2021.018863055566	3
0	5831	2021.267372158618	4
0	5838	2025.417283277416	3
0	5844	2025.622676277538	4
0	5845	2026.12030225213	3
0	5854	2027.316876022797	2
0	5862	2034.172615472263	1
0	5868	2034.472362268018	0
0	5894	2041.743886877747	1
0	5898	2044.148713998426	2
0	5899	2046.001154144573	1
0	5904	2046.637909233708	0
0	5911	2047.163714869323	1
0	5912	2047.312300530956	0
0	5922	2052.171503218001	1
0	5924	2052.528667444353	2
0	5927	2053.021507877119	1
0	5937	2056.229517806072	0
0	5952	2058.866116810044	1
0	5954	2059.637744895696	2
0	5958	2062.142027726821	3
0	5960	2062.765841136036	4
0	5966	2070.502981855563	5
0	5969	2073.382463381523	4
0	5976	2075.797684158198	3
0	5984	2077.124234600214	2
0	5992	2079.920030510596	3
0	5997	2083.980139082528	2
0	6004	2088.180823380849	3
0	6006	2089.380923203408	2
0	6012	2089.622985025119	3
0	6014	2092.56907901653	2
0	6019	2092.641354608729	1
0	6029	2095.363942815222	2
0	6030	2095.418920231722	1
0	6037	2097.921169017215	2
0	6038	2098.590132950518	1
0	6045	2099.754077957537	2
0	6047	2100.068118659312	3
0	6050	2102.068892929837	2
0	6056	2102.524413969974	3
0	6059	2105.639001261584	2
0	6064	2105.645609370284	1
0	6071	2113.67782921235	0
0	6098	2119.089831001252	1
0	6101	2120.535313838859	0
0	6123	2124.352452502551	1
0	6126	2124.635681014601	0
0	6136	2125.823680074066	1
0	6138	2125.874467285201	2
0	6140	2127.746614353677	3
0	6142	2129.252488177956	4
0	6144	2131.909266029895	5
0	6146	2133.879879857889	6
0	6147	2134.627230725551	5
0	6157	2140.178375254074	6
0	6160	2141.763344031796	5
0	6165	2143.227583101111	4
0	6171	2144.727310092377	3
0	6176	2146.359657041254	2
0	6182	2148.212877041554	1
0	6188	2148.22709619019	2
0	6190	2149.785026373072	1
0	6196	2150.527529564669	0
0	6235	2167.136836810194	1
0	6236	2167.321782189578	0
0	6242	2168.150562614728	1
0	6246	2174.450360024335	0
0	6260	2177.116958648667	1
0	6262	2177.272288938983	2
0	6263	2177.850903877379	1
0	6268	2178.81363795947	0
0	6283	2180.002375664548	1
0	6287	2182.163376068638	2
0	6289	2182.647529348778	3
0	6296	2187.771283336486	2
0	6302	2189.050592374109	3
0	6308	2192.008433457933	2
0	6316	2197.082016453521	1
0	6323	2199.053430117281	2
0	6324	2201.212978725868	1
0	6331	2202.807361523011	2
0	6334	2204.003145129066	1
0	6341	2204.370159114248	0
0	6363	2211.293310530541	1
0	6368	2213.270079513174	2
0	6373	2214.734664837623	1
0	6379	2215.581269187418	2
0	6382	2217.493116432515	1
0	6387	2217.99668511051	0
0	6391	2218.095395502629	1
0	6393	2219.319961677691	2
0	6398	2222.349329937562	3
0	6399	2223.10699294056	2
0	6407	2227.191056707912	3
0	6409	2229.002845005041	4
0	6410	2231.686527183306	3
0	6417	2234.311322955379	4
0	6419	2235.982604756951	5
0	6421	2236.056134874807	6
0	6422	2236.059534920743	5
0	6428	2237.09664269709	4
0	6434	2237.49363942396	3
0	6446	2240.634771041372	2
0	6452	2243.329701236577	1
0	6459	2243.784070615527	2
0	6460	2244.956192661364	1
0	6470	2245.951438583259	0
0	6503	2249.723688942106	1
0	6508	2253.6263508045	0
0	6520	2256.087717304794	1
0	6522	2256.129993767659	2
0	6523	2258.155039782792	1
0	6531	2259.451859692055	2
0	6533	2263.62089584132	1
0	6539	2263.881974147868	2
0	6541	2265.467818019422	1
0	6548	2266.849636426505	0
0	6564	2268.470838007079	1
0	6565	2269.056397502505	0
0	6571	2269.420991842424	1
0	6576	2272.687091661384	0
0	6592	2276.664057445507	1
0	6599	2279.935217581013	0
0	6613	2284.344456369622	1
0	6616	2285.543625915909	0
0	6622	2285.726757541822	1
0	6625	2286.738980124295	0
0	6647	2291.066032809611	1
0	6650	2292.042565925102	0
0	6676	2305.168906106078	1
0	6679	2310.144877225345	0
0	6685	2310.370816668984	1
0	6688	2311.889924735445	2
0	6690	2315.050342432459	3
0	6691	2315.275222554151	2
0	6697	2316.030276506859	3
0	6699	2319.006787994636	2
0	6708	2319.706323898644	1
0	6719	2323.003504882836	2
0	6721	2323.125391781873	3
0	6724	2325.897752359868	2
0	6730	2326.03623460118	3
0	6731	2326.12696269611	2
0	6736	2326.61497261705	1
0	6744	2329.333302385853	2
0	6746	2329.581837436847	3
0	6751	2331.034831956096	2
0	6757	2331.065969369063	3
0	6759	2331.271576334309	4
0	6760	2332.94835844329	3
0	6765	2333.576772300167	2
0	6769	2334.394696149947	3
0	6772	2343.843349847627	2
0	6778	2345.847411676078	1
0	6783	2346.259232262656	0
0	6797	2348.223813728308	1
0	6798	2348.752719930739	0
0	6806	2350.048057354123	1
0	6807	2350.445155782799	0
0	6814	2350.693942752178	1
0	6816	2351.138800197741	2
0	6817	2353.131854335586	1
0	6826	2355.953989421651	0
0	6838	2358.066496848198	1
0	6841	2361.08200115422	0
0	6866	2371.201011925732	1
0	6868	2373.686560533421	2
0	6874	2376.203355602858	3
0	6876	2376.733669875133	4
0	6878	2379.69347823242	5
0	6881	2380.523108660676	4
0	6888	2382.440865866061	3
0	6895	2384.537818703741	2
0	6900	2387.8690243772	1
0	6909	2392.252250361739	0
0	6959	2410.066711548013	1
0	6961	2412.926364888468	2
0	6965	2413.097025805033	3
0	6969	2413.96930828004	4
0	6970	2417.662850677312	3
0	6976	2418.872609289287	2
0	6984	2420.972313616287	1
0	6989	2422.01983185869	0
0	6995	2422.443949905423	1
0	6998	2431.777466449346	0
0	7007	2433.188076744368	1
0	7013	2438.76928763568	0
0	7020	2439.721360659405	1
0	7024	2442.254467009453	2
0	7028	2442.945085865444	3
0	7029	2443.882565635397	2
0	7035	2445.299058098043	1
0	7040	2445.852443093013	0
0	7051	2452.216684961641	1
0	7054	2455.253998985849	0
0	7068	2459.426364409026	1
0	7072	2461.756045504614	2
0	7074	2462.528258286104	1
0	7081	2463.843156212699	0
0	7089	2463.993048084915	1
0	7092	2466.721216023118	2
0	7095	2467.195174034337	3
0	7098	2467.822525130327	2
0	7104	2468.99500250212	1
0	7110	2469.856450047018	0
0	7129	2475.553292281436	1
0	7130	2479.674593829321	0
0	7148	2482.633684957499	1
0	7151	2486.244103131756	2
0	7154	2488.845124934005	1
0	7161	2490.508875367758	0
0	7168	2491.189550825993	1
0	7169	2491.272936623899	0
0	7175	2491.338811438876	1
0	7177	2491.651121934569	2
0	7180	2495.7938703382	1
0	7186	2496.295277195431	0
0	7205	2500.974337547991	1
0	7206	2501.554950021939	0
0	7212	2501.768829381977	1
0	7215	2501.857686104038	2
0	7221	2505.348363187673	3
0	7223	2505.925323271291	4
0	7225	2506.988555972553	5
0	7226	2508.479232814982	4
0	7231	2508.531436837025	3
0	7241	2511.070551902628	4
0	7243	2514.367800055917	5
0	7245	2514.706666249445	6
0	7247	2515.293308178516	7
0	7249	2515.994335261292	8
0	7250	2521.057010889664	7
0	7255	2521.617765594258	6
0	7261	2522.620589849985	7
0	7262	2522.985821401354	6
0	7272	2526.20598558119	5
0	7278	2526.664648788068	6
0	7282	2528.056648604178	5
0	7287	2529.57363460607	4
0	7292	2530.877271082519	3
0	7296	2531.066718377216	4
0	7298	2531.213849293595	5
0	7303	2532.020872407434	6
0	7306	2532.339590676327	7
0	7308	2534.164352028985	8
0	7312	2534.607667678405	9
0	7314	2535.084610777818	10
0	7315	2535.424682193153	9
0	7322	2536.465828087891	10
0	7323	2538.352901309465	9
0	7329	2538.461527020021	10
0	7330	2540.090397359605	9
0	7336	2541.025195835491	10
0	7337	2541.947375916561	9
0	7344	2546.586117326851	10
0	7345	2550.070134627321	9
0	7351	2550.430554151743	10
0	7352	2550.623909943439	9
0	7356	2550.976566766095	10
0	7363	2553.593873508249	9
0	7369	2553.697283021582	10
0	7371	2554.789281915496	11
0	7372	2555.907812876931	10
0	7378	2556.357547431957	11
0	7379	2556.641555431936	10
0	7387	2565.00510099211	11
0	7388	2565.931699947408	10
0	7397	2567.920354773046	11
0	7399	2568.544594607712	12
0	7403	2569.732629648316	13
0	7404	2569.76903927181	12
0	7409	2570.65513930229	11
0	7415	2570.948856345052	12
0	7417	2572.697347872086	11
0	7423	2573.277721474007	10
0	7428	2574.238430640146	9
0	7432	2574.663646722201	10
0	7436	2577.66052487271	11
0	7438	2578.328565672737	10
0	7445	2581.588301342471	9
0	7452	2583.022193207073	10
0	7454	2583.575729558667	11
0	7455	2585.623522237581	10
0	7462	2587.16072441983	11
0	7464	2588.317886863476	12
0	7465	2588.499282382184	11
0	7472	2589.002598973298	10
0	7477	2589.533989931226	9
0	7483	2590.056808693285	10
0	7488	2591.648034233149	11
0	7492	2593.248275572422	10
0	7498	2598.318507739813	9
0	7505	2600.023913584831	10
0	7506	2602.535498253881	9
0	7511	2602.695607331735	8
0	7520	2609.237011506183	7
0	7525	2609.288311458743	6
0	7530	2611.50732662829	5
0	7538	2615.924807438556	6
0	7539	2616.360870372079	5
0	7545	2618.784093547875	4
0	7550	2618.958587294085	3
0	7556	2621.18841890124	4
0	7559	2626.614004709063	5
0	7562	2629.736500666702	4
0	7567	2631.072728096297	3
0	7575	2633.727221423185	4
0	7579	2636.74354263521	3
0	7586	2639.378150890908	2
0	7591	2641.870716730755	1
0	7596	2641.940782267895	0
0	7617	2645.34759716131	1
0	7621	2646.180218209229	2
0	7622	2646.874359409059	1
0	7630	2649.704531880844	0
0	7643	2658.927305795707	1
0	7644	2659.965685175078	0
0	7650	2660.269855407707	1
0	7652	2662.403327055904	0
0	7659	2664.904086365096	1
0	7660	2665.687602073856	0
0	7693	2679.183572333835	1
0	7698	2681.505689332792	0
0	7735	2694.744595084021	1
0	7737	2695.48670380177	2
0	7738	2698.392982344214	1
0	7744	2698.619615401705	2
0	7749	2700.229666285405	1
0	7757	2701.559723615115	2
0	7758	2704.119380724937	1
0	7763	2704.236088797147	0
0	7770	2704.758432836151	1
0	7771	2705.010832385561	0
0	7823	2722.803663294169	1
0	7825	2722.908062598623	2
0	7830	2726.94482736147	1
0	7837	2728.248736205654	0
0	7854	2734.077801889647	1
0	7857	2737.808507122676	0
0	7876	2746.153244571812	1
0	7877	2746.204164355395	0
0	7889	2747.196571556169	1
0	7892	2747.845478822306	0
0	7905	2756.972399530353	1
0	7912	2759.8735230759	0
0	7926	2765.064194733357	1
0	7928	2765.159863498326	2
0	7930	2766.436572631097	3
0	7931	2767.632757285513	2
0	7938	2769.60113137377	3
0	7939	2769.630833094059	2
0	7947	2770.449865033784	1
0	7953	2770.653118370896	2
0	7955	2772.100822720764	3
0	7959	2772.617641550063	2
0	7966	2775.191246620837	3
0	7967	2775.969102986096	2
0	7974	2777.289261477654	1
0	7979	2778.037442327927	0
0	7987	2781.20332082855	1
0	7988	2783.760813465682	0
0	7994	2783.943196259306	1
0	7996	2788.294078235055	0
0	8002	2788.703287668428	1
0	8007	2789.207650054482	0
0	8027	2798.740129841685	1
0	8028	2799.309981732468	0
0	8037	2800.60766235048	1
0	8044	2804.663130581158	0
0	8050	2804.905259284482	1
0	8052	2805.105451274657	2
0	8058	2806.261269948496	1
0	8064	2806.493875623539	2
0	8068	2808.262043127032	1
0	8074	2809.027236880262	2
0	8075	2809.709569408973	1
0	8086	2811.56865469849	2
0	8087	2812.037798986487	1
0	8092	2813.109735907256	0
0	8108	2815.264181289833	1
0	8110	2816.465737013768	0
0	8121	2818.715146412566	1
0	8124	2820.219225475834	0
0	8132	2820.589761021626	1
0	8136	2822.47041781152	0
0	8148	2825.7315708798	1
0	8150	2826.601324636382	2
0	8154	2827.461893190191	3
0	8155	2828.279366796327	2
0	8160	2828.38557961919	1
0	8168	2830.794604664912	2
0	8170	2831.027028688247	3
0	8171	2831.133567062335	2
0	8178	2831.546145612831	1
0	8183	2833.903903410412	0
0	8187	2835.402922938991	1
0	8189	2835.829307092325	2
0	8192	2836.877674757095	1
0	8202	2838.008621450088	2
0	8208	2840.979324282254	3
0	8210	2841.04492990955	4
0	8220	2846.143053439481	5
0	8222	2846.995244252683	6
0	8226	2848.773924776132	7
0	8230	2853.823710145769	8
0	8231	2854.366682003406	7
0	8236	2855.466888337116	6
0	8244	2860.352735827321	7
0	8247	2863.968385292491	6
0	8252	2864.59733524116	5
0	8258	2865.886185218291	4
0	8263	2866.773976939971	3
0	8269	2867.332116694724	4
0	8274	2869.626302187951	5
0	8276	2870.014295861132	6
0	8281	2873.853453183527	5
0	8286	2875.400886531507	4
0	8293	2876.28865080715	3
0	8301	2880.574769720449	2
0	8308	2881.296406749791	1
0	8315	2885.209514397918	2
0	8319	2886.040269756296	1
0	8325	2888.064801322937	0
0	8337	2888.835612454529	1
0	8339	2889.14956020381	0
0	8346	2892.058007409953	1
0	8347	2892.522496467627	0
0	8382	2903.387002388252	1
0	8385	2905.467523647336	0
0	8402	2907.043005721181	1
0	8403	2908.555314584487	0
0	8415	2910.656123677892	1
0	8421	2913.23621627431	2
0	8422	2913.509178296392	1
0	8427	2913.711502837297	0
0	8433	2913.960643711031	1
0	8435	2914.386215931877	2
0	8439	2915.156699440792	3
0	8443	2916.892473516222	4
0	8444	2917.855900246143	3
0	8451	2920.692522638003	2
0	8456	2921.595838134857	1
0	8463	2922.07149080939	2
0	8467	2926.120603012508	1
0	8473	2926.449545497139	2
0	8475	2927.221491623147	3
0	8477	2929.742958659367	4
0	8481	2937.390413294791	3
0	8489	2941.127755083	2
0	8494	2941.182761803709	1
0	8500	2941.847651463163	0
0	8508	2944.36473955483	1
0	8509	2944.384355713425	0
0	8513	2945.46073051803	1
0	8517	2946.296658020203	2
0	8524	2955.742553426091	1
0	8529	2955.785356525846	0
0	8557	2967.078067923377	1
0	8558	2970.880830546305	0
0	8598	2984.789038044399	1
0	8600	2985.214929474652	2
0	8602	2985.634486109787	3
0	8604	2986.510978188808	4
0	8608	2993.071260143491	5
0	8610	2993.193473175466	6
0	8611	2993.221722705606	5
0	8617	2995.670911637196	4
0	8625	2996.110913387153	3
0	8630	2996.69830255373	2
0	8636	2999.131875436605	1
0	8645	3003.047832468127	2
0	8646	3003.0968405961	1
0	8655	3004.516750858292	2
0	8656	3004.76208737214	1
0	8663	3004.899230741658	2
0	8667	3009.633726405901	1
0	8673	3009.857632902753	2
0	8674	3010.816280104909	1
0	8679	3011.189786201588	0
0	8710	3020.464042069402	1
0	8711	3022.958463054174	0
0	8728	3029.635592190824	1
0	8731	3031.789989996298	0
0	8758	3037.961380300209	1
0	8763	3041.729236483034	0
0	8775	3045.208530102334	1
0	8776	3045.522681572697	0
0	8782	3046.893430773847	1
0	8785	3049.326813327833	2
0	8788	3050.7465196307	3
0	8789	3052.061743127673	2
0	8795	3053.703298812401	1
0	8801	3053.814875326199	2
0	8803	3056.633950827482	3
0	8804	3056.659885569709	2
0	8809	3057.343712981334	1
0	8813	3058.455367879904	2
0	8816	3059.969667845606	1
0	8825	3061.922760624138	0
0	8832	3065.240788148771	1
0	8836	3065.852022422621	2
0	8837	3067.16772618172	1
0	8844	3068.194174668321	0
0	8871	3077.172243996648	1
0	8872	3082.602635675012	0
0	8887	3084.856143033968	1
0	8888	3087.63387128633	0
0	8894	3089.523771480842	1
0	8896	3089.678765324326	2
0	8898	3090.712511602544	1
0	8903	3090.837061205791	0
0	8910	3091.448431201154	1
0	8912	3092.612492595782	2
0	8913	3092.961969395255	1
0	8920	3094.79475334609	2
0	8922	3094.891711315673	3
0	8924	3094.969759770916	4
0	8926	3098.222885329303	3
0	8932	3102.468001090503	2
0	8937	3102.777867405735	1
0	8944	3103.519703376374	0
0	8950	3109.015451789046	1
0	8952	3111.779993613016	2
0	8957	3113.33972863051	3
0	8959	3113.510942884374	4
0	8962	3114.966568764787	5
0	8964	3115.237785646036	6
0	8965	3116.484161298802	5
0	8971	3118.763693717402	4
0	8980	3121.406666494907	5
0	8983	3122.221396107023	4
0	8990	3124.021527988003	3
0	8995	3125.036840300065	2
0	8999	3125.208884476511	3
0	9002	3128.366421417386	2
0	9006	3130.278303240399	3
0	9010	3132.286301842628	2
0	9015	3133.33002714653	1
0	9020	3135.833318347548	0
0	9038	3138.502328903316	1
0	9040	3138.66494139988	2
0	9041	3140.330633325884	1
0	9048	3141.540510512172	0
0	9060	3142.123591458175	1
0	9061	3142.689470532512	0
0	9082	3149.645710219176	1
0	9084	3151.506338395358	2
0	9085	3151.769529044574	1
0	9090	3152.124905748609	0
0	9112	3170.09736831285	1
0	9118	3173.902655776725	2
0	9121	3175.491792106335	1
0	9131	3176.663201638662	2
0	9135	3177.437191235732	3
0	9136	3178.035623636161	2
0	9141	3178.077779211877	1
0	9147	3178.25280376674	0
0	9166	3182.864856089914	1
0	9170	3185.271948008885	0
0	9177	3185.405046157123	1
0	9180	3188.601809136046	2
0	9184	3192.261362576189	3
0	9186	3192.874173667729	4
0	9188	3193.06600803256	5
0	9192	3196.83033090953	6
0	9193	3201.056788167047	5
0	9199	3202.968682959225	4
0	9205	3204.765004120372	3
0	9212	3206.912249634173	2
0	9217	3207.110278842771	1
0	9225	3211.681333126787	0
0	9232	3212.296232887947	1
0	9236	3213.534240135471	2
0	9240	3214.64164106082	1
0	9245	3214.731572768475	0
0	9257	3215.666862087075	1
0	9259	3216.17747735028	2
0	9262	3218.035237756948	1
0	9268	3219.437437519392	0
0	9284	3221.248239562049	1
0	9288	3224.005988111515	0
0	9315	3234.180935083357	1
0	9317	3234.186491013125	2
0	9321	3235.373058452209	3
0	9322	3237.603132893114	2
0	9327	3237.715480698783	1
0	9332	3238.145691930992	0
0	9336	3238.236354299552	1
0	9338	3238.762622344712	2
0	9341	3242.857426419034	1
0	9347	3243.344499464205	0
0	9356	3244.047178464144	1
0	9362	3247.005646291014	0
0	9377	3249.290482944221	1
0	9378	3255.868777737539	0
0	9385	3256.321408967663	1
0	9387	3258.978133116117	2
0	9388	3260.016183980914	1
0	9393	3261.734911054237	0
0	9410	3267.656105490276	1
0	9413	3268.384549735868	2
0	9416	3270.33316453403	1
0	9421	3272.261763706578	0
0	9450	3283.796197591572	1
0	9451	3284.960161821776	0
0	9496	3301.849669651664	1
0	9499	3302.286756246506	0
0	9513	3307.379548203	1
0	9517	3309.412721794541	2
0	9518	3310.927014781462	1
0	9525	3311.687647503579	0
0	9535	3314.143302803754	1
0	9536	3314.313233844639	0
0	9545	3320.301531144503	1
0	9547	3321.914213547699	2
0	9548	3323.652632046546	1
0	9553	3324.297303015306	0
0	9572	3332.055564153166	1
0	9573	3332.265248841464	0
0	9586	3333.531212840277	1
0	9588	3335.466975571875	2
0	9590	3336.564434914284	3
0	9591	3336.711257799686	2
0	9600	3339.067611223368	1
0	9606	3339.949147842589	2
0	9608	3340.596483092404	1
0	9613	3341.246059206662	0
0	9636	3346.138361871771	1
0	9637	3347.709111817019	0
0	9648	3347.77135342263	1
0	9649	3348.072322922561	0
0	9662	3351.273718939412	1
0	9665	3353.564852615345	0
0	9675	3356.039544830838	1
0	9679	3358.988296421235	2
0	9681	3359.978314541627	3
0	9682	3362.963284751644	2
0	9687	3363.423436705047	1
0	9696	3367.719527841636	0
0	9703	3370.945642675555	1
0	9704	3370.952213019246	0
0	9752	3393.10419285952	1
0	9754	3393.362323814555	2
0	9755	3394.031344370694	1
0	9760	3394.080639403379	0
0	9772	3397.156480744887	1
0	9773	3397.558019737635	0
0	9779	3398.619427532945	1
0	9782	3399.146322872962	0
0	9800	3403.481074341866	1
0	9806	3408.276976702497	0
0	9812	3410.109011794711	1
0	9814	3412.594262918309	2
0	9816	3413.253625771786	3
0	9818	3414.859947468146	4
0	9823	3418.148613180678	5
0	9825	3418.925088593207	6
0	9826	3419.550515396793	5
0	9832	3420.550439439363	6
0	9834	3421.027766618999	5
0	9840	3421.136796544342	4
0	9845	3421.520986462528	3
0	9850	3422.020473658795	2
0	9858	3428.04216254437	3
0	9859	3429.225099207077	2
0	9864	3430.234552115531	1
0	9870	3430.5514643582	2
0	9873	3431.593143933408	1
0	9879	3431.710224762481	2
0	9881	3431.859647651315	3
0	9884	3432.616914722908	2
0	9890	3436.000394041769	3
0	9894	3438.026108318371	2
0	9900	3439.627664926791	3
0	9902	3439.97246183507	4
0	9903	3440.131791536355	3
0	9909	3441.310730798594	2
0	9914	3441.946646170399	1
0	9918	3441.987100342916	2
0	9920	3442.299253662517	3
0	9923	3443.032817756376	2
0	9928	3443.862487359566	1
0	9932	3445.090040324382	2
0	9935	3446.47997689929	1
0	9943	3450.813180668854	2
0	9944	3453.955457791976	1
0	9951	3460.84798968445	0
0	9966	3466.971097793064	1
0	9968	3467.526207870123	2
0	9970	3468.07022028478	3
0	9977	3471.770730178366	4
0	9980	3473.258818086135	3
0	9987	3474.548352203718	2
0	9995	3474.895013360925	1
0	10001	3475.691805412542	0
0	10026	3479.282454179288	1
0	10033	3484.602823207187	2
0	10034	3487.148604237725	1
0	10040	3487.882148738984	0
0	10065	3493.312374517888	1
0	10068	3495.930479144509	0
0	10079	3497.284074639225	1
0	10083	3499.401378414261	2
0	10086	3499.840977681706	1
0	10091	3501.613532632308	0
0	10119	3517.652009030193	1
0	10120	3519.378491984862	0
0	10130	3520.759957894976	1
0	10134	3521.493374964581	2
0	10139	3525.938094562577	3
0	10141	3526.01662555683	4
0	10142	3526.095529687206	3
0	10147	3526.52258502411	2
0	10155	3527.292442546621	3
0	10156	3527.933656573379	2
0	10161	3528.15936371767	1
0	10168	3528.329140225783	2
0	10169	3528.748043748621	1
0	10179	3529.922847633565	0
0	10190	3531.275860527319	1
0	10193	3533.536904575057	0
0	10217	3537.61255367952	1
0	10219	3538.853723003605	2
0	10222	3543.641543606152	1
0	10227	3544.469225847588	0
0	10244	3549.617135752908	1
0	10246	3549.653872185708	2
0	10248	3550.472058830359	1
0	10254	3550.936663482432	0
0	10260	3551.19776109582	1
0	10261	3551.281766449719	0
0	10267	3551.904711596946	1
0	10270	3555.116151813027	0
0	10297	3562.238255135535	1
0	10299	3562.379999724665	2
0	10303	3565.233927563002	3
0	10304	3566.435212270118	2
0	10313	3568.21219819059	3
0	10314	3569.226011503784	2
0	10319	3570.69742808	1
0	10324	3571.251409907315	0
0	10331	3573.54476896561	1
0	10337	3581.515152338904	0
0	10359	3590.279996307902	1
0	10361	3591.255276169058	2
0	10363	3591.727815096404	3
0	10365	3592.163742312094	4
0	10370	3594.986038352865	3
0	10376	3597.626209268555	2
0	10381	3597.960087720163	1
0	10386	3598.193781388495	0
0	10392	3599.576540403936	1
0	10393	3600.350269614644	0
0	10408	3604.3769842219	1
0	10409	3605.266033827867	0
0	10415	3605.650329162956	1
0	10419	3608.004094156963	2
0	10422	3608.679389180737	1
0	10427	3609.00560547045	0
0	10440	3610.062252433389	1
0	10445	3610.858757368793	0
0	10451	3611.188861205578	1
0	10457	3612.813532272243	2
0	10458	3613.238886985769	1
0	10464	3615.30870442528	0
0	10476	3618.364271640425	1
0	10477	3618.420523002569	0
0	10483	3619.029713408879	1
0	10486	3621.432906760475	2
0	10487	3622.766724189579	1
0	10493	3623.027975433813	2
0	10496	3623.20773460541	3
0	10499	3625.701212108168	4
0	10500	3625.87587317449	3
0	10507	3628.431997908663	4
0	10509	3631.3036958146	5
0	10511	3631.838504060223	6
0	10512	3632.174194900174	5
0	10517	3632.279372647541	4
0	10526	3634.062262191283	5
0	10527	3634.307265562523	4
0	10533	3634.666077777631	3
0	10544	3638.370813004989	2
0	10550	3638.562568745254	1
0	10557	3639.225107055655	2
0	10558	3641.932451318188	1
0	10564	3642.435632989827	0
0	10581	3644.688218007047	1
0	10582	3645.070458350799	0
0	10593	3655.10237702139	1
0	10596	3655.974944805695	0
0	10609	3658.833963142242	1
0	10614	3660.679807076785	2
0	10616	3661.188301858263	1
0	10621	3663.224635314914	0
0	10629	3668.281110760999	1
0	10631	3668.331751865821	2
0	10632	3668.726823584427	1
0	10640	3672.62320829146	2
0	10643	3672.941890576217	1
0	10649	3673.076949287171	2
0	10651	3673.567953704647	3
0	10654	3675.967187125549	2
0	10659	3676.241774398603	1
0	10665	3676.820408365302	2
0	10666	3676.927313960666	1
0	10674	3679.680362279637	2
0	10677	3681.1431668158	1
0	10687	3683.71264968784	2
0	10688	3683.742297383819	1
0	10698	3687.407852447205	0
0	10704	3688.795783534897	1
0	10709	3692.028067930569	2
0	10710	3693.798889299929	1
0	10715	3695.369698830282	0
0	10727	3698.446778907792	1
0	10728	3699.669422573466	0
0	10735	3701.190545529086	1
0	10738	3702.36211867277	0
0	10744	3703.027776326635	1
0	10747	3704.373282031937	2
0	10748	3704.776036173034	1
0	10754	3706.456377632387	0
0	10769	3709.072870481311	1
0	10772	3710.540047319731	0
0	10784	3713.651622866851	1
0	10786	3714.064186975297	2
0	10787	3714.842978684729	1
0	10792	3715.467839235121	0
0	10799	3715.966134396607	1
0	10800	3716.172587811089	0
0	10806	3716.239974807567	1
0	10809	3719.516858968256	0
0	10815	3719.918228875852	1
0	10817	3720.747608592207	2
0	10818	3721.120307336012	1
0	10826	3724.89533760605	0
0	10832	3725.054581125035	1
0	10834	3726.369133931054	0
0	10883	3746.270144292696	1
0	10888	3749.569073717242	0
0	10894	3749.629305299281	1
0	10898	3751.697144623722	0
0	10913	3753.288726844201	1
0	10914	3754.904957337048	0
0	10933	3763.872649065521	1
0	10936	3770.421630027312	0
0	10948	3774.07493277932	1
0	10950	3775.546648107788	2
0	10952	3776.094870946215	3
0	10953	3776.76128847511	2
0	10958	3778.946073041956	1
0	10963	3780.43597648579	0
0	10969	3782.614536648233	1
0	10970	3782.727417125722	0
0	10979	3788.962263382667	1
0	10981	3789.553187904402	2
0	10985	3790.815253422358	1
0	10991	3791.588954013585	0
0	11005	3796.836209519124	1
0	11006	3797.293072025558	0
0	11015	3798.763306310099	1
0	11020	3800.618545391475	2
0	11021	3800.91094605979	1
0	11027	3801.402322225604	2
0	11030	3805.494955517309	1
0	11036	3806.266172220671	0
0	11042	3807.079401342038	1
0	11043	3807.687722397074	0
0	11047	3811.847071764994	1
0	11049	3812.018568836682	2
0	11053	3817.971927901228	1
0	11058	3818.416184290483	0
0	11062	3820.902018092717	1
0	11067	3822.23400167393	2
0	11068	3823.052587272805	1
0	11074	3825.248404522367	0
0	11080	3825.355421911939	1
0	11081	3826.394562616344	0
0	11121	3847.006763550291	1
0	11128	3850.193287395372	0
0	11148	3852.799021830751	1
0	11150	3853.427328419513	2
0	11151	3854.679475983789	1
0	11157	3856.656644833176	0
0	11170	3860.716410145642	1
0	11171	3862.064377482848	0
0	11177	3862.112138659049	1
0	11178	3862.337963926462	0
0	11214	3871.533784638199	1
0	11217	3872.9945752326	0
0	11233	3875.248799792498	1
0	11235	3876.207874483961	2
0	11239	3878.049595796431	3
0	11240	3878.402920547616	2
0	11245	3878.940542501275	1
0	11250	3879.401534333567	0
0	11264	3884.299300949009	1
0	11266	3884.575167611584	2
0	11267	3885.408177525189	1
0	11274	3887.194795033215	2
0	11275	3888.784558729258	1
0	11289	3892.50695964298	2
0	11291	3895.589212614437	3
0	11293	3895.707998479914	4
0	11294	3896.162969306967	3
0	11301	3899.010384720478	4
0	11302	3900.054030353142	3
0	11308	3905.298800787337	2
0	11313	3906.781657460279	1
0	11323	3910.707427148826	2
0	11324	3910.99217232546	1
0	11329	3911.416437832916	0
0	11350	3915.536783910829	1
0	11353	3917.211325783803	0
0	11360	3919.292864453376	1
0	11362	3919.393109136213	2
0	11364	3919.895161828891	1
0	11370	3922.346999819691	0
0	11378	3923.783739652064	1
0	11382	3928.664155337148	2
0	11384	3936.115733511889	3
0	11385	3936.364462187296	2
0	11392	3937.653217577704	3
0	11393	3938.940070642294	2
0	11399	3941.424560614989	1
0	11406	3944.721994641249	0
0	11423	3950.523431363492	1
0	11425	3950.718063501168	2
0	11426	3953.5388123913	1
0	11431	3954.246263735352	0
0	11461	3961.231657372877	1
0	11464	3962.655076928514	0
0	11470	3962.736294352983	1
0	11472	3967.151633193386	0
0	11478	3967.235604659133	1
0	11481	3969.719566727409	0
0	11505	3974.562808410848	1
0	11506	3975.905428703993	0
0	11512	3977.238435260582	1
0	11514	3977.37741092884	2
0	11515	3977.579089277122	1
0	11523	3979.375339885332	2
0	11525	3979.634806968715	3
0	11528	3981.396042131729	4
0	11530	3983.988593432189	5
0	11534	3989.405685063719	6
0	11535	3989.576833938674	5
0	11540	3989.94498679432	4
0	11547	3992.517848630453	3
0	11553	3992.829146339213	2
0	11558	3994.99671591467	1
0	11564	3996.809357757757	0
0	11581	4001.557383156817	1
0	11582	4001.814092196697	0
0	11602	4013.142518977177	1
0	11610	4022.319888956476	0
0	11628	4032.02911847881	1
0	11631	4035.0250382865	2
0	11632	4035.9315809586	1
0	11638	4037.094642440837	2
0	11639	4037.631449295095	1
0	11645	4039.02516773643	0
0	11674	4048.769982457271	1
0	11678	4049.16921150254	2
0	11680	4049.224751949028	3
0	11685	4050.427981266765	4
0	11686	4050.67886198549	3
0	11692	4051.167865815407	4
0	11694	4051.610194200983	5
0	11699	4054.698831440595	6
0	11700	4054.798683743423	5
0	11709	4058.371820965271	6
0	11714	4063.624489046794	7
0	11716	4065.364249685314	8
0	11717	4066.469531124478	7
0	11724	4067.982259658405	8
0	11725	4071.607242818938	7
0	11730	4071.9255946741	6
0	11735	4072.599369439529	5
0	11741	4074.138949643625	6
0	11745	4076.907482181295	7
0	11747	4077.797426980411	8
0	11749	4078.234043767012	9
0	11750	4078.680657522846	8
0	11755	4078.874038939715	7
0	11761	4079.038565411755	8
0	11765	4082.680656768745	9
0	11766	4086.838470468724	8
0	11774	4087.97850797508	9
0	11775	4090.311809536524	8
0	11781	4091.465536308038	7
0	11786	4094.092427552442	6
0	11792	4094.526791519648	5
0	11801	4096.24730650421	4
0	11806	4096.447807848396	3
0	11812	4098.850716403048	2
0	11820	4099.617979470598	3
0	11822	4100.416969941768	4
0	11824	4102.995803551208	3
0	11830	4103.553241073198	4
0	11832	4103.556503639853	5
0	11835	4104.557913884569	4
0	11841	4105.240058254714	5
0	11842	4108.285342425391	4
0	11847	4108.363697707579	3
0	11853	4110.662365003239	2
0	11859	4114.660634194353	1
0	11865	4114.670550739734	2
0	11867	4114.771857107617	3
0	11869	4114.982235257914	4
0	11871	4115.885107754137	5
0	11872	4116.075375904722	4
0	11880	4118.574686296241	5
0	11883	4118.931134691347	6
0	11885	4119.065922891056	7
0	11889	4119.445215640873	8
0	11890	4120.338307930204	7
0	11897	4126.991535124928	8
0	11899	4127.921965863233	9
0	11901	4129.256472156525	10
0	11902	4130.678281739165	9
0	11907	4131.689579648857	8
0	11916	4132.542279647266	7
0	11923	4133.685743309861	8
0	11927	4136.548694525546	9
0	11928	4138.243064334437	8
0	11934	4138.393129659618	9
0	11935	4139.406321836054	8
0	11942	4140.268432981687	9
0	11945	4143.521525303816	10
0	11946	4143.54180063467	9
0	11952	4145.124945536457	10
0	11953	4145.372902317982	9
0	11959	4147.213955708281	10
0	11960	4148.107771043817	9
0	11964	4148.617321240405	10
0	11969	4154.028672868939	9
0	11980	4156.098355612139	10
0	11981	4157.202338380915	9
0	11988	4158.749072731651	10
0	11991	4159.526495611122	9
0	11996	4160.129495963184	8
0	12001	4161.260966318402	7
0	12005	4162.077928776853	8
0	12007	4163.742467478073	9
0	12011	4167.7062107336	10
0	12014	4167.950321501333	11
0	12015	4168.29288424989	10
0	12023	4169.727421833186	9
0	12028	4170.164521696102	8
0	12034	4170.869364999808	9
0	12037	4174.47612678608	8
0	12046	4179.163357429461	7
0	12052	4180.255225067018	6
0	12060	4182.788074192823	5
0	12065	4183.178142904718	4
0	12070	4183.717161540289	3
0	12075	4183.77282108681	2
0	12082	4188.90285173671	1
0	12090	4189.501287148692	2
0	12091	4189.657753867943	1
0	12096	4191.498798859098	0
0	12117	4200.674822227906	1
0	12118	4200.758152043105	0
0	12134	4201.999496719615	1
0	12138	4203.327399473651	0
0	12161	4206.465022602061	1
0	12163	4206.948531409386	0
0	12183	4214.37964760238	1
0	12184	4215.393748363135	0
0	12203	4223.339655376844	1
0	12204	4224.1457579604	0
0	12210	4224.605988781973	1
0	12212	4224.952669024228	2
0	12215	4226.759137016564	1
0	12222	4227.689058147108	2
0	12225	4229.237332503562	1
0	12231	4229.743934684454	2
0	12232	4230.395675600527	1
0	12238	4232.261559051157	0
0	12266	4245.732878737783	1
0	12269	4247.849675319759	0
0	12278	4250.230381322554	1
0	12281	4251.658794665691	0
0	12305	4255.628665611824	1
0	12309	4258.059513251871	2
0	12310	4259.196481028693	1
0	12320	4264.554972986373	2
0	12321	4265.201781888805	1
0	12330	4269.078881139696	2
0	12332	4270.355143250328	3
0	12333	4271.550699887191	2
0	12339	4271.793820936199	3
0	12340	4272.664915515275	2
0	12346	4274.062765698491	3
0	12347	4274.422437535281	2
0	12351	4275.169431438714	3
0	12353	4275.423180793846	4
0	12360	4279.187685872032	5
0	12363	4281.325382492082	4
0	12371	4281.987208819764	5
0	12373	4282.434979651295	4
0	12378	4282.671399392369	3
0	12385	4283.187234781514	2
0	12394	4289.061163969396	3
0	12395	4289.223377706967	2
0	12405	4294.366566172843	3
0	12406	4295.410421630183	2
0	12412	4296.195096214971	3
0	12414	4296.470950321006	4
0	12417	4296.914525477988	5
0	12419	4297.670173852489	6
0	12420	4302.737552782505	5
0	12426	4302.998937919506	6
0	12428	4303.419286834202	5
0	12434	4304.119755279166	4
0	12439	4304.544483148606	3
0	12447	4307.202120707686	4
0	12448	4307.481926331919	3
0	12454	4310.044264871024	2
0	12460	4311.161498707845	1
0	12468	4314.972627424937	0
0	12481	4320.277800703516	1
0	12482	4320.977323645555	0
0	12519	4330.895063017	1
0	12520	4332.210120334852	0
0	12529	4332.956180712709	1
0	12531	4333.917877488157	2
0	12540	4336.148050301515	1
0	12545	4337.13778357063	0
0	12559	4340.674948203513	1
0	12560	4341.525076679007	0
0	12595	4356.009745226683	1
0	12601	4360.237238954952	0
0	12608	4365.690537154657	1
0	12610	4366.044641384361	2
0	12611	4369.995901698747	1
0	12619	4370.724639783465	2
0	12621	4372.651206458948	1
0	12628	4374.175338178728	0
0	12634	4374.933297970561	1
0	12635	4375.025438842713	0
0	12656	4381.017466409412	1
0	12657	4381.611697594442	0
0	12671	4386.433983547242	1
0	12676	4390.454559030736	0
0	12705	4400.896689914848	1
0	12708	4401.520971928784	0
0	12742	4413.120653102277	1
0	12745	4416.966605728416	0
0	12751	4417.620324981916	1
0	12754	4421.888010350595	2
0	12756	4421.973155254764	3
0	12759	4422.13068969921	2
0	12767	4423.978931283164	1
0	12774	4424.989982109072	2
0	12775	4425.288140232133	1
0	12782	4427.102157400578	0
0	12786	4428.097938944373	1
0	12792	4430.161779171663	2
0	12801	4434.281968410912	1
0	12808	4435.53578017237	2
0	12813	4439.452800869557	1
0	12819	4440.249437424129	2
0	12822	4443.716451131646	3
0	12823	4446.126133118374	2
0	12829	4446.774075896066	1
0	12840	4447.472047362442	2
0	12842	4447.569224597491	3
0	12843	4450.414986818729	2
0	12849	4450.520219177356	3
0	12850	4452.091686472011	2
0	12855	4452.366286262956	1
0	12862	4455.639039357121	0
0	12872	4459.204531421661	1
0	12873	4459.210683905006	0
0	12879	4459.849612627231	1
0	12880	4460.799705756597	0
0	12901	4466.226153994185	1
0	12906	4469.842591975893	2
0	12908	4470.506706784593	3
0	12909	4471.031024947635	2
0	12917	4475.344500224276	1
0	12922	4476.6954210727	0
0	12937	4486.737442047211	1
0	12939	4486.814935016455	2
0	12941	4487.073996965877	3
0	12942	4489.662494872552	2
0	12951	4490.111670189658	3
0	12955	4491.643391252411	4
0	12956	4492.456492661477	3
0	12961	4493.102371962991	2
0	12967	4493.348095700798	3
0	12971	4495.34421005457	2
0	12976	4496.44591171869	1
0	12984	4499.199671273746	0
0	12991	4505.59507006844	1
0	12992	4505.818391360407	0
0	12998	4506.989331838971	1
0	13000	4512.164650700273	0
0	13024	4516.233802528686	1
0	13027	4519.31169620332	0
0	13054	4527.181545894032	1
0	13057	4528.710791184002	0
0	13079	4535.704804052723	1
0	13080	4536.8126420783	0
0	13089	4537.690117199101	1
0	13093	4540.899546244987	2
0	13096	4542.682323420063	1
0	13101	4543.089237686835	0
0	13109	4545.80080362009	1
0	13114	4549.347233372972	0
0	13123	4558.417347488596	1
0	13124	4558.572442299334	0
0	13130	4558.660643629563	1
0	13133	4559.131638646137	2
0	13136	4562.136415451888	1
0	13144	4564.114099089225	2
0	13145	4564.582222193194	1
0	13151	4569.220789088043	0
0	13159	4570.290802840101	1
0	13161	4571.289083554844	2
0	13163	4571.352600253951	3
0	13164	4571.380214828874	2
0	13170	4576.42270125133	1
0	13176	4578.122629380408	0
0	13201	4582.096104768637	1
0	13205	4582.991294262785	2
0	13208	4584.269885612026	1
0	13217	4585.405173446376	0
0	13229	4585.837027867072	1
0	13231	4587.536813052243	2
0	13235	4588.806507873552	3
0	13241	4592.425058734682	4
0	13242	4593.631072685916	3
0	13248	4595.893875881882	2
0	13253	4596.23817568025	1
0	13261	4600.176433444115	2
0	13263	4600.565683466583	3
0	13268	4601.740304808737	4
0	13270	4602.407088893492	5
0	13272	4602.914566155247	6
0	13275	4604.905737861492	5
0	13280	4605.129400736694	4
0	13285	4607.175624807251	3
0	13291	4607.814598597329	4
0	13293	4608.493590556887	5
0	13295	4609.316925403848	4
0	13303	4610.197321311789	5
0	13304	4612.430251291759	4
0	13309	4614.524823821841	3
0	13322	4618.20452315994	2
0	13328	4618.644423727472	3
0	13332	4620.414726307433	2
0	13338	4620.794736565196	3
0	13341	4621.364306444681	2
0	13349	4623.488504972062	3
0	13350	4623.820063451357	2
0	13355	4624.757597276013	1
0	13360	4624.922318256167	0
0	13364	4626.028483445956	1
0	13370	4630.439713888476	0
0	13377	4630.671590087661	1
0	13378	4631.15691217157	0
0	13382	4631.372515548064	1
0	13386	4632.908610164664	0
0	13404	4636.766632773998	1
0	13406	4638.366915896747	2
0	13407	4640.911388256639	1
0	13416	4641.689607890175	0
0	13425	4642.747716680463	1
0	13428	4644.01684328525	0
0	13476	4674.640023600483	1
0	13482	4678.184290531627	2
0	13485	4679.675743082392	1
0	13493	4681.664490718986	0
0	13504	4683.022068821366	1
0	13509	4685.100968205315	2
0	13510	4685.544208473422	1
0	13519	4687.103089224697	0
0	13533	4689.293828121541	1
0	13536	4692.6707045593	0
0	13554	4695.73868251513	1
0	13556	4696.354479561834	2
0	13558	4696.815806766298	3
0	13559	4701.972917636646	2
0	13566	4702.460044363987	3
0	13568	4702.598895427173	4
0	13569	4703.158956008511	3
0	13574	4703.707285330151	2
0	13582	4705.508599912872	3
0	13584	4707.928205477508	2
0	13591	4709.079473316518	3
0	13592	4710.212420255604	2
0	13598	4711.988694258295	1
0	13606	4714.971861051886	0
0	13614	4715.621358114428	1
0	13616	4719.388995550765	0
0	13622	4719.71335256844	1
0	13623	4720.300380387224	0
0	13666	4736.756880504016	1
0	13667	4738.706151369261	0
0	13673	4739.306510698258	1
0	13675	4739.467883478259	2
0	13678	4742.283025006994	3
0	13679	4742.325966424994	2
0	13684	4743.512776991092	1
0	13693	4746.529917343504	0
0	13700	4746.77126805849	1
0	13701	4747.315828844761	0
0	13712	4752.74367748827	1
0	13714	4752.852197024878	2
0	13718	4754.202415938199	3
0	13719	4754.913536584643	2
0	13725	4756.032882304459	3
0	13727	4756.101970942093	4
0	13732	4758.064099594727	5
0	13737	4759.621000082017	4
0	13743	4762.246065363435	3
0	13750	4762.38009698299	4
0	13752	4766.203860889999	3
0	13758	4767.124312984729	2
0	13763	4767.169671489725	1
0	13770	4768.056469291574	0
0	13812	4784.871416382773	1
0	13813	4785.053683772859	0
0	13845	4797.798052647578	1
0	13846	4797.990375848626	0
0	13855	4801.301741636799	1
0	13856	4802.476341325888	0
0	13892	4812.450933563987	1
0	13894	4812.54694999282	2
0	13898	4813.69207843507	3
0	13899	4815.307885150293	2
0	13905	4815.938657868486	1
0	13910	4816.18446274531	0
0	13916	4816.351118649494	1
0	13918	4817.935794679601	0
0	13930	4821.298201112516	1
0	13934	4822.220924958264	0
0	13944	4826.088932686411	1
0	13947	4826.724717430133	0
0	13967	4830.152836171422	1
0	13974	4839.129749842448	0
0	13981	4839.342210236564	1
0	13982	4840.443166781717	0
0	13988	4841.119152774852	1
0	13990	4842.999322690932	0
0	14002	4849.816211609472	1
0	14004	4853.814838144193	2
0	14005	4855.045858752301	1
0	14012	4855.743503606367	2
0	14013	4856.475016048481	1
0	14022	4858.760479801012	2
0	14025	4860.732319007964	1
0	14031	4860.844530596573	2
0	14034	4865.712642259757	3
0	14035	4868.228566674471	2
0	14042	4869.4553272838	1
0	14047	4870.585831844884	0
0	14051	4870.784030709479	1
0	14054	4871.122335717771	0
0	14060	4872.446994485952	1
0	14061	4872.507754782315	0
0	14098	4886.895303936499	1
0	14100	4887.27617786406	2
0	14101	4887.702899759712	1
0	14110	4890.303310795453	0
0	14121	4892.009557411881	1
0	14122	4893.798474626011	0
0	14136	4894.601997436421	1
0	14142	4896.996411003448	2
0	14147	4898.37909261582	3
0	14152	4899.589012060713	2
0	14158	4904.059416755891	1
0	14166	4905.110086748435	2
0	14168	4905.29556059662	1
0	14181	4910.559762710257	0
0	14187	4911.561801922749	1
0	14189	4913.403970786471	0
0	14211	4922.701720401098	1
0	14212	4922.963275327028	0
0	14222	4924.366387729103	1
0	14227	4926.791786930996	0
0	14243	4929.61689962642	1
0	14246	4931.846432465524	0
0	14255	4932.731076417809	1
0	14256	4933.349897630873	0
0	14277	4936.70704715213	1
0	14281	4937.163271442182	2
0	14283	4937.227848097268	3
0	14284	4937.339352455197	2
0	14289	4937.631504718382	1
0	14297	4938.97663323903	0
0	14303	4939.095500761874	1
0	14306	4941.180196086467	2
0	14308	4941.951113448748	1
0	14313	4942.045570835693	0
0	14319	4942.941491374449	1
0	14323	4945.403523048772	2
0	14326	4954.208721898624	1
0	14333	4954.921915988676	2
0	14335	4960.416084191726	3
0	14336	4961.973068751521	2
0	14344	4963.904704349975	1
0	14349	4963.992774307001	0
0	14361	4966.625554884353	1
0	14364	4967.159456399816	2
0	14366	4967.321450373025	3
0	14371	4971.339190650048	4
0	14372	4973.228227869402	3
0	14379	4977.795491760887	2
0	14385	4978.647826206172	1
0	14390	4980.902614122358	0
0	14410	4986.685436174066	1
0	14412	4987.254188441017	2
0	14413	4988.239823798304	1
0	14419	4990.87104006722	2
0	14421	4991.760336014759	3
0	14423	4992.764533090322	2
0	14429	4992.812990778114	1
0	14437	4994.422731762796	0
0	14443	4994.634071700531	1
0	14445	4994.653946318327	2
0	14447	4997.041685807681	1
0	14455	4998.820115092529	0
0	14467	5003.489599580709	1
0	14468	5003.891284705394	0
0	14477	5005.440407518219	1
0	14479	5007.064206458342	2
0	14481	5007.615381771186	3
0	14485	5008.419101701303	4
0	14486	5010.697316875654	3
0	14491	5010.70070691943	2
0	14500	5012.302800978579	1
0	14506	5012.458848505678	2
0	14508	5013.200942540096	1
0	14514	5013.873411622587	2
0	14516	5016.685193368538	1
0	14522	5016.807165370165	2
0	14526	5018.018648092463	3
0	14528	5018.066917343405	4
0	14530	5019.803974665891	5
0	14531	5021.354955418901	4
0	14539	5024.004757589366	5
0	14542	5024.696058608671	6
0	14543	5026.112237378281	5
0	14552	5032.21011467551	6
0	14553	5032.91108152183	5
0	14562	5034.568104183382	4
0	14568	5035.171135611024	5
0	14570	5035.927570878523	6
0	14573	5036.131991307593	5
0	14580	5038.988224862198	4
0	14586	5041.678255393827	5
0	14588	5041.743332231462	6
0	14589	5042.692156670059	5
0	14596	5046.078126471888	4
0	14602	5049.150279238525	5
0	14606	5049.828242614644	6
0	14610	5051.203428816148	7
0	14612	5051.491843078154	8
0	14614	5051.88328748796	9
0	14617	5053.132104407681	8
0	14625	5057.484689353422	7
0	14630	5058.296735440299	6
0	14641	5059.306549904222	5
0	14648	5059.867795433022	6
0	14651	5061.767882507246	5
0	14657	5063.397013995648	6
0	14658	5063.434038061299	5
0	14668	5066.241225250984	6
0	14669	5067.031276414983	5
0	14678	5071.354750816895	6
0	14679	5071.874761398809	5
0	14684	5071.985769713093	4
0	14691	5073.170585122945	3
0	14696	5074.504146901297	2
0	14707	5077.448912138647	1
0	14713	5078.126280185375	0
0	14719	5078.250538087666	1
0	14720	5078.512370980125	0
0	14726	5080.072681650692	1
0	14728	5081.121937221998	2
0	14729	5082.240734702638	1
0	14737	5085.020169900367	2
0	14738	5085.165692523105	1
0	14742	5085.693846008137	2
0	14745	5087.721491399009	1
0	14750	5089.896710434597	0
0	14754	5090.171113896268	1
0	14759	5091.870056192168	0
0	14765	5091.894213863415	1
0	14767	5093.403167317512	2
0	14768	5093.752730652721	1
0	14773	5094.379794072973	0
0	14779	5099.441798547019	1
0	14783	5104.775089872325	0
0	14801	5109.412566341379	1
0	14805	5112.271958036143	2
0	14806	5112.878860681553	1
0	14812	5115.965609915015	0
0	14819	5116.224909887704	1
0	14821	5120.579121305612	2
0	14823	5121.592503608528	3
0	14824	5122.049788720911	2
0	14831	5122.119344824493	3
0	14833	5124.897991597878	2
0	14838	5125.732844847607	1
0	14847	5128.879483080855	0
0	14869	5134.599493756614	1
0	14872	5135.782737449527	0
0	14882	5138.886542228402	1
0	14885	5145.352525626613	0
0	14892	5146.545841577108	1
0	14893	5151.905751513533	0
0	14899	5152.277216913602	1
0	14901	5152.606962053594	2
0	14903	5153.15510256809	3
0	14908	5154.250175418897	4
0	14909	5154.888264775623	3
0	14915	5155.326556283034	2
0	14921	5157.972303462905	3
0	14924	5162.14588207327	4
0	14925	5163.36790997988	3
0	14933	5165.421455120832	2
0	14939	5167.041501374486	1
0	14944	5169.197783409846	0
0	14976	5177.889332852257	1
0	14977	5179.839675276918	0
0	14995	5184.629839497231	1
0	14996	5185.369298617739	0
0	15011	5188.315188435935	1
0	15015	5190.413258591019	2
0	15016	5190.459763299733	1
0	15022	5190.730208065096	2
0	15023	5190.965152677379	1
0	15028	5191.211956604616	0
0	15037	5192.517409172148	1
0	15040	5193.625915348364	0
0	15059	5201.225405222835	1
0	15061	5201.24135586698	2
0	15063	5201.287111145841	3
0	15064	5201.797257419005	2
0	15070	5204.221966679435	1
0	15075	5205.184667033378	0
0	15081	5206.609903020666	1
0	15083	5207.707773744296	2
0	15085	5207.834811116957	1
0	15091	5210.131889449414	2
0	15092	5210.187253457786	1
0	15096	5212.348465459206	2
0	15098	5213.691645788768	3
0	15100	5213.860407289945	4
0	15103	5214.604157157542	3
0	15113	5218.022530066952	4
0	15114	5218.921984018025	3
0	15121	5220.642002181067	4
0	15122	5221.690100488269	3
0	15130	5222.350964959563	2
0	15135	5223.208025535006	1
0	15143	5224.136038415297	2
0	15145	5224.984494131234	1
0	15150	5225.055940840555	0
0	15169	5231.309023064511	1
0	15170	5232.843620030951	0
0	15197	5240.241593017554	1
0	15201	5243.327334405955	2
0	15206	5246.885461987953	1
0	15212	5247.354804292531	2
0	15213	5248.293951272582	1
0	15222	5248.819717199094	2
0	15223	5248.881382784461	1
0	15236	5258.932235168986	2
0	15237	5259.837695367071	1
0	15246	5266.289394092962	0
0	15271	5274.846741057106	1
0	15272	5274.923059805377	0
0	15278	5275.24202420289	1
0	15281	5278.128112688424	2
0	15282	5278.350029089485	1
0	15290	5281.353953656314	0
0	15311	5288.678380525747	1
0	15312	5288.977107502587	0
0	15321	5293.145123227213	1
0	15327	5294.023174766924	2
0	15328	5295.169492053427	1
0	15334	5295.807257467024	0
0	15340	5297.093109993535	1
0	15343	5297.384285508418	2
0	15345	5298.028591780486	3
0	15347	5298.473681588039	4
0	15349	5298.69202676523	5
0	15350	5303.18594168806	4
0	15355	5303.76254952882	3
0	15363	5305.415996747385	4
0	15366	5306.619544447997	3
0	15373	5308.939926758644	4
0	15377	5311.16039113048	3
0	15383	5312.192362655374	2
0	15389	5313.213636463287	1
0	15399	5316.653403095769	2
0	15401	5316.937597293592	3
0	15403	5322.364398428882	4
0	15404	5323.581109866134	3
0	15410	5326.901694334566	2
0	15418	5327.7717008167	3
0	15419	5330.501856666073	2
0	15424	5333.019939500288	1
0	15431	5333.947498091558	0
0	15460	5341.826026355986	1
0	15462	5343.021310775171	2
0	15463	5343.715473294682	1
0	15470	5344.006662358411	2
0	15475	5349.755318549277	1
0	15481	5349.823886268543	2
0	15483	5350.261180201907	1
0	15489	5350.393330632059	2
0	15492	5351.348520150248	3
0	15495	5351.958878155065	2
0	15505	5356.715818703473	1
0	15513	5357.793406503702	0
0	15519	5358.903397109461	1
0	15520	5358.976312829157	0
0	15528	5359.814422742471	1
0	15529	5363.367895380623	0
0	15556	5369.587914420499	1
0	15559	5370.113051096984	0
0	15566	5371.278616833832	1
0	15568	5371.353493131019	2
0	15571	5374.794124662452	1
0	15582	5377.569316747533	2
0	15583	5377.9882585257	1
0	15591	5381.906947764411	2
0	15592	5381.992125445178	1
0	15599	5383.227142235941	2
0	15601	5383.44505911062	3
0	15602	5383.530471752233	2
0	15609	5384.189057653534	1
0	15617	5386.382388249447	0
0	15649	5395.008035350865	1
0	15651	5395.492520986114	2
0	15654	5397.211668112142	1
0	15660	5399.482706593498	0
0	15677	5407.871050555879	1
0	15679	5408.254181034996	2
0	15680	5409.180728526397	1
0	15687	5414.914237928258	0
0	15694	5416.182781787256	1
0	15698	5418.018191432667	2
0	15699	5418.375135318187	1
0	15706	5419.663317622975	2
0	15711	5424.141249640747	3
0	15713	5426.090313376224	4
0	15715	5427.660882854161	5
0	15716	5427.936020385971	4
0	15723	5429.486206037536	3
0	15729	5430.013077518397	4
0	15730	5430.322362554056	3
0	15739	5434.08209881972	4
0	15741	5435.310184990291	3
0	15748	5437.081646288913	2
0	15755	5439.904868428416	1
0	15759	5439.929476189933	2
0	15762	5443.052797572567	1
0	15769	5446.539999445049	2
0	15772	5450.872816648494	3
0	15774	5454.273262802577	4
0	15775	5454.336405481663	3
0	15781	5454.914133082159	2
0	15789	5457.819664006064	1
0	15795	5458.077459524807	0
0	15811	5458.896626118177	1
0	15812	5460.702076823534	0
0	15831	5468.557555200316	1
0	15834	5469.154289425921	0
0	15856	5476.040307151206	1
0	15858	5476.56082335433	2
0	15859	5477.111986077117	1
0	15866	5477.699586180057	2
0	15870	5479.866660315942	3
0	15871	5479.980823375827	2
0	15879	5481.87193342056	3
0	15880	5481.909615620474	2
0	15885	5485.21602125993	1
0	15889	5486.859780342206	2
0	15893	5488.559045537224	3
0	15898	5490.967660000921	2
0	15903	5491.486928359001	1
0	15909	5494.68262783486	2
0	15912	5495.322630393712	1
0	15918	5495.505256200048	2
0	15921	5495.993927719843	3
0	15922	5496.305105214421	2
0	15931	5500.432689397604	3
0	15935	5502.404970973957	4
0	15936	5502.548368715335	3
0	15943	5506.38504461141	4
0	15944	5506.897866541376	3
0	15951	5509.771323599983	4
0	15952	5510.477336399408	3
0	15958	5511.154483038569	2
0	15964	5511.819615168726	3
0	15968	5512.245449948206	4
0	15972	5515.163524753286	3
0	15983	5518.378175301108	4
0	15985	5519.616504582047	5
0	15987	5520.249617276528	6
0	15989	5521.46076051109	7
0	15991	5522.420963021862	8
0	15992	5523.274538067589	7
0	15998	5523.581928065323	6
0	16003	5524.083988238149	5
0	16009	5525.244047481721	6
0	16010	5525.836393206362	5
0	16019	5527.999682614188	4
0	16025	5529.23862195192	5
0	16030	5534.558639188429	6
0	16032	5534.91731879704	7
0	16033	5536.364105320792	6
0	16038	5537.115800165438	5
0	16042	5537.289577624016	6
0	16046	5541.246869036476	5
0	16053	5542.254761095647	4
0	16059	5544.825952421152	3
0	16069	5546.604325942243	4
0	16071	5548.387011565602	5
0	16076	5550.674435587294	6
0	16077	5550.907850747984	5
0	16085	5552.618076797909	4
0	16092	5553.955462295652	5
0	16093	5557.727243960933	4
0	16099	5558.586385987396	3
0	16105	5562.63680517933	2
0	16112	5565.834459037023	3
0	16113	5570.061107337995	2
0	16119	5570.092035454577	3
0	16121	5570.579407570533	2
0	16126	5571.786506090627	1
0	16133	5571.796421910747	0
0	16161	5583.219738313386	1
0	16164	5587.856342058289	0
0	16171	5589.618745165478	1
0	16173	5589.770815039556	2
0	16174	5590.513545809302	1
0	16180	5592.725046477942	0
0	16194	5600.266171590411	1
0	16196	5600.429127982078	2
0	16197	5601.66351233179	1
0	16203	5604.937067393194	0
0	16210	5605.642348638368	1
0	16212	5605.995027424483	2
0	16213	5606.105273991876	1
0	16218	5606.246633526152	0
0	16227	5610.205956045309	1
0	16230	5612.117775081627	2
0	16236	5615.69342731482	1
0	16241	5616.082299198462	0
0	16274	5626.412169900627	1
0	16278	5626.626048001382	2
0	16282	5628.897438729358	3
0	16283	5629.142817734572	2
0	16291	5629.949762339738	3
0	16294	5630.034612394243	4
0	16296	5630.074684616137	5
0	16299	5632.350191930874	4
0	16306	5639.776233006147	5
0	16308	5641.428903700344	6
0	16309	5642.924455353402	5
0	16318	5645.808948831838	4
0	16324	5646.457256331611	5
0	16327	5647.792783240131	6
0	16328	5649.920875834268	5
0	16333	5650.217789755037	4
0	16338	5650.350865849239	3
0	16343	5651.349794930348	2
0	16349	5652.62409398163	1
0	16357	5654.116968338187	0
0	16377	5664.918197219413	1
0	16378	5665.827483248289	0
0	16384	5666.675055815	1
0	16385	5667.604624398684	0
0	16394	5668.810625698874	1
0	16396	5669.708846558654	0
0	16404	5671.650040126547	1
0	16408	5672.702443133031	2
0	16410	5672.985564730061	3
0	16412	5676.146504665625	4
0	16418	5679.003762448456	5
0	16419	5679.496755599791	4
0	16425	5679.685997094812	5
0	16426	5679.885852333847	4
0	16433	5684.171344606353	3
0	16438	5691.190584081381	2
0	16447	5692.451907801448	1
0	16453	5692.752509373468	2
0	16455	5693.886282514584	1
0	16460	5694.197630305702	0
0	16471	5695.422987803923	1
0	16474	5698.008069219067	0
0	16486	5699.298444958843	1
0	16489	5700.636534228629	0
0	16496	5701.363580201139	1
0	16499	5702.284179864593	0
0	16518	5707.605838806386	1
0	16519	5708.696974535112	0
0	16529	5710.771928013725	1
0	16532	5713.764623369074	0
0	16558	5723.56105174968	1
0	16564	5727.444522042553	2
0	16567	5731.430673355623	1
0	16574	5733.053881195829	0
0	16583	5735.174549143515	1
0	16586	5736.031036853885	0
0	16592	5737.91006194042	1
0	16598	5738.257339473248	2
0	16599	5739.390087475285	1
0	16605	5740.976488435282	0
0	16618	5743.791329270098	1
0	16619	5743.942172337345	0
0	16631	5745.001841137274	1
0	16638	5751.771179918245	0
0	16649	5754.723734465867	1
0	16653	5756.525799487712	2
0	16660	5758.154117761977	3
0	16661	5758.771733424924	2
0	16670	5763.102662213873	1
0	16675	5763.774542053858	0
0	16693	5767.457918228024	1
0	16696	5769.628793317575	0
0	16712	5777.567440355158	1
0	16713	5778.084997069732	0
0	16724	5781.890497605569	1
0	16730	5784.464850365307	0
0	16740	5795.327441698075	1
0	16743	5798.291890821431	0
0	16778	5807.701313959974	1
0	16779	5808.614505957462	0
0	16786	5810.859369501013	1
0	16787	5810.901727537646	0
0	16810	5817.01382244871	1
0	16813	5818.222727063393	0
0	16824	5819.921840378382	1
0	16826	5821.289104784917	0
0	16838	5824.131554391516	1
0	16845	5827.543784179174	0
0	16851	5827.813994930895	1
0	16853	5828.620793229162	0
0	16867	5830.593920069964	1
0	16870	5831.048791669204	0
0	16879	5831.973067409105	1
0	16881	5834.782202027166	2
0	16884	5837.158064732854	1
0	16889	5837.214652841241	0
0	16904	5840.141655831805	1
0	16906	5840.328359344981	2
0	16907	5841.318679672081	1
0	16913	5841.663075363912	2
0	16914	5842.879929474012	1
0	16919	5843.70456550654	0
0	16927	5845.478164058819	1
0	16928	5845.50289522038	0
0	16941	5849.824756643177	1
0	16943	5850.817177714792	2
0	16944	5852.587925640382	1
0	16951	5855.423011013554	0
0	16975	5864.748504493731	1
0	16978	5866.026973219641	2
0	16980	5868.868151867637	3
0	16981	5869.077241160226	2
0	16989	5873.4805474219	1
0	16994	5874.453975377283	0
0	17014	5879.30395143284	1
0	17015	5880.976067019097	0
0	17040	5886.550077777979	1
0	17045	5888.163124099232	0
0	17065	5893.867621578013	1
0	17066	5895.718674213494	0
0	17082	5899.958971896486	1
0	17086	5902.565723185298	0
0	17100	5907.484789822314	1
[...]
4	73519	25756.511429859118	9148.9156473686
4	73526	25760.642592701993	9148.0183119415
4	73533	25773.397295396398	9158.4211638889
4	73583	25793.208723479786	9174.4042711558
4	73602	25801.184378077574	9173.203700172
4	73607	25801.699580948762	9167.1335848189
4	73612	25802.435996053284	9166.0999534785
4	73617	25803.866732719316	9157.3759394575
4	73624	25808.017966536176	9157.7436279556
4	73633	25814.945248984749	9164.4706288119
4	73646	25823.813852761612	9172.6557119972
4	73657	25832.810371306377	9172.7091267326
4	73691	25850.049618004759	9186.8007485352
4	73703	25853.531323918953	9188.1721397029
4	73742	25860.622690655341	9194.6130899085
4	73750	25867.869264719197	9197.1772735886
4	73763	25869.384599993197	9195.3177762605
4	73768	25871.502895275765	9191.5413371979
4	73783	25874.970400455953	9186.3080699832
4	73855	25901.440465019424	9204.3601097612
4	73871	25909.568596791819	9196.6171169577
4	73899	25919.500353072886	9201.5173195833
4	73907	25921.55112468167	9189.8667453759
4	73959	25942.932126520815	9199.8070091319
4	73968	25947.03676350275	9197.582890471
4	73981	25952.353681070359	9198.6162866503
4	73993	25954.471361414123	9195.271596384
4	74002	25957.562070517899	9184.5227635248
4	74093	25993.452815864241	9220.3548823169
4	74101	25999.193808761789	9225.3882428911
4	74114	26001.436146741418	9223.7317518235
4	74126	26007.246240127874	9226.6235366973
4	74137	26009.111969540188	9228.2373352909
4	74150	26019.495716170308	9235.9075550285
4	74169	26028.430551701508	9241.7349340844
4	74200	26041.302078655218	9253.6552036613
4	74211	26043.538970379628	9250.4076977327
4	74218	26044.444869316543	9245.7213513872
4	74225	26045.858773563795	9240.0654248001
4	74242	26052.447590826323	9232.9985043949
4	74292	26066.792350092283	9247.0835792574
4	74343	26084.855351373499	9264.2007056835
4	74351	26088.844414619607	9265.6193008347
4	74358	26090.084632072062	9261.0259100215
4	74365	26093.393517594039	9261.8768861804
4	74372	26101.684006905382	9263.8432846073
4	74394	26111.881058416491	9272.1166629173
4	74401	26115.517803066255	9263.3979127321
4	74419	26121.394128579051	9267.0107506382
4	74424	26122.429130954065	9267.313732714
4	74431	26123.661605596978	9265.4396149746
4	74436	26126.843328276487	9252.4499822467
4	74443	26128.100525307061	9251.8152103562
4	74481	26145.384288381743	9258.715452667
4	74486	26148.230432741091	9260.7185615397
4	74491	26150.005196697846	9236.3769649701
4	74504	26156.506797632233	9235.2821782002
4	74538	26165.761060790555	9241.3617938851
4	74543	26167.214977321013	9217.3575462936
4	74551	26170.016209118753	9215.5661787567
4	74556	26170.74023088309	9215.1835097946
4	74565	26176.347098237401	9219.1819124339
4	74602	26198.589567563596	9237.203050159
4	74632	26208.690745243971	9231.3136677249
4	74665	26216.175182499016	9238.6213529519
4	74670	26216.498904673564	9231.4873729555
4	74679	26219.218675465107	9232.3587006491
4	74700	26235.150911066601	9244.3612100139
4	74882	26296.072673661444	9304.5694706193
4	74887	26296.268564466007	9268.9168369127
4	74894	26299.182603027006	9261.48699668
4	74907	26308.227588126223	9266.6874536307
4	74933	26314.417884823128	9271.7837452721
4	74957	26323.80073991683	9279.2152663227
4	74966	26328.067428696467	9282.5767759727
4	74971	26329.404100437656	9283.2254952541
4	74982	26341.753460705706	9290.8085376161
4	75033	26361.033816034272	9289.6033146632
4	75063	26367.751981639709	9294.7562843836
4	75071	26370.540300596813	9296.2468483003
4	75076	26372.392722614747	9287.1612610056
4	75083	26375.217345872075	9289.0843676897
4	75211	26419.81107502994	9329.5435044516
4	75222	26422.85528127144	9331.0266430993
4	75229	26427.09969903389	9328.9826002707
4	75255	26433.146517910632	9325.5128759846
4	75316	26460.558890973963	9352.5118669921
4	75321	26461.190254889545	9348.6256415349
4	75326	26461.721865022524	9347.2301047283
4	75336	26464.929683095111	9337.6611475822
4	75351	26467.421773334917	9330.426639163
4	75356	26468.30962824928	9330.7344344975
4	75367	26472.634410665321	9333.1100817528
4	75378	26476.107943966272	9336.5699061842
4	75407	26487.279797635483	9344.9074231714
4	75416	26491.398707267353	9339.8572494833
4	75531	26524.937050603662	9368.3730986648
4	75544	26528.884101137553	9368.8114505386
4	75549	26530.099747541506	9363.7290951668
4	75560	26532.320983506305	9364.9882335869
4	75567	26537.600595413717	9364.3088047879
4	75584	26551.05629889296	9356.0642236797
4	75743	26602.420913989891	9400.2166209435
4	75756	26609.892291106641	9402.5717573947
4	75785	26619.264355550636	9411.3366882966
4	75794	26620.785573263427	9412.7871362513
4	75801	26626.240341810266	9406.3431549361
4	75811	26627.694499142684	9404.2824688697
4	75818	26631.939585697966	9403.9899927504
4	75837	26642.562057005577	9410.7592972953
4	75874	26651.666007293827	9414.2782284229
4	75879	26657.752821987284	9417.2420832179
4	75890	26659.203616581887	9415.4666500547
4	75901	26663.089965720367	9418.8079790439
4	76044	26707.783161409848	9462.7463572056
4	76059	26711.397447688011	9464.9253473842
4	76065	26712.458732966527	9462.3497206168
4	76070	26717.971927272612	9464.3592926472
4	76077	26720.769740420005	9450.3689142959
4	76086	26725.025348504134	9441.657524276
4	76120	26731.410166888367	9446.1271962271
4	76127	26732.417356828768	9434.748729772
4	76133	26735.171094200957	9434.6097493121
4	76138	26736.746940156088	9433.676730033
4	76154	26744.880535814381	9439.6976273202
4	76221	26771.155535791118	9460.7964857239
4	76234	26776.602838017388	9461.0005266301
4	76254	26783.615179822463	9465.5680523229
4	76260	26784.561214696704	9463.0403614102
4	76271	26788.081914708336	9465.4415900667
4	76669	26927.314642514061	9601.238276703
4	76680	26932.416295948552	9605.2637801619
4	76687	26935.266670684444	9596.7556507954
4	76699	26940.199539355066	9599.1038271224
4	76730	26947.080989924926	9602.62625302
4	76736	26948.222991155002	9601.1063686265
4	76743	26951.891595531118	9594.9435753591
4	76754	26953.652124778609	9590.8860979718
4	76760	26956.787966110602	9593.5070115063
4	76771	26959.19005678876	9588.6096435366
4	76778	26962.152264694376	9587.5499957814
4	76785	26962.889662687399	9585.9669509413
4	76792	26965.175400624138	9580.5647676719
4	76800	26970.308596705754	9566.8864597248
4	76811	26972.778517551685	9565.9802939229
4	76824	26980.243147607364	9569.5800110273
4	76905	27005.279185298312	9577.6491059168
4	76912	27008.072016160082	9578.7040944566
4	76941	27025.56041812725	9596.1330272721
4	76954	27028.198545638232	9590.5992667046
4	76964	27029.242719312846	9587.1854394606
4	76976	27031.721294720747	9588.4702544787
4	76997	27035.115195311895	9589.8172328827
4	77003	27036.480082566081	9575.3646023039
4	77008	27038.229346578868	9574.5787249342
4	77018	27046.399373318972	9574.093862759
4	77031	27049.14458379898	9565.5568074824
4	77040	27054.648786761075	9565.7766937935
4	77064	27067.118658413657	9570.3966237213
4	77071	27071.285535173295	9572.2640931827
4	77080	27077.017852857009	9574.3700339739
4	77097	27078.920071611467	9571.6111400472
4	77134	27090.064137462738	9581.8688163662
4	77141	27094.036674807475	9579.3029904553
4	77153	27100.469371344175	9575.4223945478
4	77227	27130.810043967079	9594.6335908739
4	77232	27130.895842151191	9585.0347918712
4	77239	27131.572212393277	9580.0535456203
4	77249	27133.800032741908	9580.8631360222
4	77259	27139.061322136102	9575.507363852
4	77271	27145.48908011189	9580.8878247222
4	77279	27156.561442522415	9588.3470134085
4	77302	27163.082173592193	9588.2537932345
4	77354	27180.216949920627	9599.7212686777
4	77361	27182.707768064712	9600.6692943019
4	77366	27186.349413464185	9597.7998591253
4	77379	27194.794646452766	9599.3590257534
4	77405	27201.593871124189	9603.3148776893
4	77417	27212.526524981548	9611.5197396428
4	77426	27216.073809066562	9612.43071345
4	77451	27231.411932623417	9614.7122862094
4	77605	27289.910201355067	9665.7597687049
4	77615	27290.632446539576	9664.5328116177
4	77622	27291.689443931491	9658.6368631998
4	77629	27292.970857420244	9647.7791754638
4	77639	27294.355016130645	9648.1528887868
4	77645	27298.60769525757	9649.128441016
4	77655	27302.614150484089	9652.7091478708
4	77668	27307.875798183153	9648.6283140693
4	77676	27309.01666657924	9641.5111924854
4	77689	27311.406194458291	9621.3171468526
4	77696	27317.586717960166	9626.9642629275
4	77703	27318.857865131066	9620.8649266346
4	77725	27325.322530900968	9621.3460224034
4	77730	27326.974478179982	9621.3528863563
4	77735	27329.172527264885	9622.5834426337
4	77744	27331.253481605876	9615.5709972135
4	77754	27332.594537220294	9616.6997616643
4	77765	27341.995974212255	9606.9783680568
4	77788	27351.652744012391	9613.6603160717
4	77801	27361.031435165155	9619.4394550026
4	77808	27362.86962166565	9612.2048597473
4	77819	27370.557425377326	9602.5262620061
4	77837	27377.166618666846	9590.2843814641
4	77871	27387.062906323047	9599.91965367
4	77892	27402.791971692013	9602.0802894291
4	77913	27405.962660124396	9605.137599726
4	77932	27420.133752081706	9618.2083013995
4	77937	27423.421347655359	9619.0120033007
4	77952	27429.295587789391	9622.7393698643
4	78307	27547.22753584244	9735.0264608965
4	78312	27549.227935132158	9725.5483499715
4	78321	27553.437074851479	9715.2221435708
4	78390	27571.808645780991	9714.7150633347
4	78397	27572.765866211	9706.4816207962
4	78418	27577.885545244487	9700.7632686296
4	78427	27582.399073647892	9703.6545170035
4	78432	27583.028999683506	9690.8175292036
4	78443	27592.155476443883	9698.6240414705
4	78485	27608.176252564063	9711.2556466472
4	78504	27615.365078781821	9710.4886202225
4	79021	27793.211080388863	9887.8331334147
4	79032	27800.251668588464	9889.8204594491
4	79085	27814.314234872881	9900.5259885724
4	79092	27819.558524985223	9894.2415197419
4	79099	27820.773034000776	9892.8943392362
4	79114	27826.688078818452	9897.8485532475
4	79143	27837.345918377087	9906.0806000117
4	79317	27892.733690802802	9952.1350373889
4	79347	27897.876446797997	9955.508225325
4	79353	27898.626609096323	9953.7925736001
4	79366	27907.308114643076	9962.1964850423
4	79398	27917.026071749559	9969.1125515527
4	79405	27918.619434767839	9965.1153992905
4	79412	27921.479883975638	9963.6558202556
4	79424	27924.160006250747	9964.7612410665
4	79433	27928.475680766093	9953.3015664843
4	79502	27954.195539720011	9975.3761730441
4	79509	27955.503975254207	9973.7332228816
4	79514	27955.756036813617	9970.4308954215
4	79521	27961.576071980589	9975.5294243049
4	79532	27963.171672243268	9975.3447097502
4	79549	27975.726109282977	9982.1245744764
4	79581	27982.342387614754	9988.4221763458
4	79591	27984.155162359068	9987.0356009129
4	79641	27997.650824942095	9996.0096698281
4	79647	27998.885230228285	9987.0785838002
4	79652	28001.027548494737	9984.4710818713
4	79657	28002.339335516147	9979.7882975715
4	79662	28005.720477966239	9978.0484395452
4	79674	28007.886143186442	9975.6157487947
4	79774	28040.833996611947	9996.9125981105
4	79782	28045.892289110231	10000.822064293
4	79797	28052.447095972631	10003.112592356
4	79821	28059.99269705051	10005.243404617
4	79839	28062.962387729744	10006.293386979
4	79846	28063.990787975005	10004.96040041
4	79858	28068.265493397615	10005.764535591
4	79865	28071.633904679788	10008.048482362
4	79872	28075.264677358018	10001.951573988
4	79880	28078.823371788645	10001.308792532
4	79889	28080.056123950013	9999.9415170246
4	79914	28085.708059170288	9999.8459335379
4	79925	28092.006894469266	10005.125510167
4	79930	28093.848515982941	10004.904944548
4	79937	28094.766456646375	9998.4046307903
4	79949	28098.354031660183	10001.448765825
4	79975	28105.953578865377	10005.593156568
4	79986	28109.522776415568	9992.7572184636
4	80004	28114.055641683688	9987.7204922617
4	80015	28120.276923735025	9990.7602535971
4	80036	28129.094976319078	9976.3757551283
4	80041	28129.360546177337	9975.6827441589
4	80056	28134.901573786514	9974.2157362489
4	80079	28141.324248386083	9980.1903422259
4	80092	28148.361166105643	9978.1604023661
4	80112	28156.707423695717	9980.9245527661
4	80133	28163.230055024484	9973.0595802092
4	80138	28163.255582519128	9972.587419523
4	80155	28179.235828659106	9984.6393558726
4	80576	28334.236715963617	10139.624187267
4	80586	28337.683755752805	10142.745977662
4	80595	28341.89837781909	10144.962483595
4	80644	28353.676648302388	10147.153762185
4	80650	28354.434299791798	10111.948058721
4	80657	28356.637693832033	10099.751441034
4	80677	28364.465663721656	10091.273026537
4	80764	28386.258009497833	10101.039850793
4	80775	28389.619614849838	10095.804016639
4	80794	28400.133642468625	10105.093067978
4	80803	28402.91721957805	10099.203875222
4	80832	28416.892555904336	10101.213311255
4	80838	28417.419341895607	10097.311658646
4	80843	28419.389723173544	10095.554281374
4	80860	28427.349134578389	10094.850869558
4	80890	28439.152527635856	10099.428650604
4	80897	28444.108391825956	10104.203977766
4	80910	28448.764595216034	10106.507647229
4	80928	28458.179713703497	10092.264440167
4	80979	28475.547578005957	10109.34113326
4	80997	28483.725356757013	10101.805127103
4	81014	28495.931936755461	10109.218033438
4	81037	28500.451336212234	10112.297536984
4	81044	28504.296210584779	10101.347871313
4	81056	28506.405745791295	10098.015207834
4	81061	28506.4506611924	10095.976389862
4	81070	28511.494134900255	10097.895594016
4	81089	28517.471694545341	10102.362847112
4	81205	28558.4306628944	10143.088825773
4	81521	28675.48245736189	10256.035617991
4	81526	28676.00226121187	10247.651192406
4	81531	28677.83410141291	10241.513278102
4	81540	28680.8931908815	10241.330108535
4	81640	28713.969920139492	10269.6755415
4	81647	28716.176507517115	10271.421873906
4	81666	28729.062451038333	10268.874890651
4	81683	28731.043420888899	10269.40809102
4	81692	28734.794459447704	10272.769978531
4	81799	28772.950789830775	10299.905762504
4	81805	28774.520134397968	10300.784894276
4	81810	28775.392698204751	10278.800637561
4	81815	28775.567360321724	10274.385801
4	81820	28776.696429761303	10274.452769739
4	81831	28779.268381487492	10275.116394018
4	81861	28789.222626438094	10281.394886183
4	81869	28791.707774189821	10281.028521577
4	81881	28793.141917440802	10275.944469927
4	81887	28795.591397256378	10276.814348188
4	81904	28803.276220427983	10280.110456325
4	81937	28819.466036215158	10290.842591433
4	81967	28827.037771559933	10294.712081878
4	81977	28829.146603839378	10295.134995252
4	81982	28829.759808149127	10294.660773938
4	81987	28830.511785918832	10293.742060523
4	81999	28836.272424830481	10297.786402099
4	82043	28851.718209130874	10308.294689914
4	82052	28858.047501071321	10313.806662901
4	82097	28873.741472180185	10327.064731081
4	82104	28877.354134183282	10326.85689376
4	82116	28884.512419835198	10333.008494673
4	82124	28889.599179178329	10331.290369949
4	82146	28893.195752913	10328.194460392
4	82156	28898.031725489708	10332.243958562
4	82175	28906.422337868196	10338.78344255
4	82199	28912.072650409817	10341.587205033
4	82204	28914.736462390524	10340.45971215
4	82231	28930.699033920648	10356.16146436
4	82423	28993.1006558975	10417.522972135
4	82430	28996.396378280627	10414.89260554
4	82435	28998.209745645132	10404.264927666
4	82444	29002.240481495638	10406.485350749
4	82452	29003.354573563366	10391.586294276
4	82465	29006.924040162143	10378.921181756
4	82472	29008.921995292562	10371.88868703
4	82485	29014.241491646752	10377.081476625
4	82499	29021.753909530155	10381.484102416
4	82514	29030.436129131387	10386.940419183
4	82755	29123.252305701097	10469.495220482
4	82763	29124.80208032202	10469.031050326
4	82770	29126.562593903148	10462.845542599
4	82781	29133.857180991816	10461.089414681
4	82786	29137.223758597439	10461.626985145
4	82795	29141.966200018677	10465.722132782
4	82804	29142.556176665632	10461.750689369
4	82819	29147.433309565648	10462.489018268
4	82826	29149.192755888026	10461.484047242
4	82844	29155.335044548756	10463.720574369
4	83084	29245.372456585373	10548.933564493
4	83124	29255.790196583837	10553.073591686
4	83138	29258.204556828406	10551.733409292
4	83149	29261.835760817732	10553.90297716
4	83179	29278.085282856265	10557.628254564
4	83185	29278.543195007621	10556.647512325
4	83191	29280.218265648963	10555.235785379
4	83196	29280.313803898296	10547.301908917
4	83208	29286.18009002658	10540.022685514
4	83224	29289.308218544532	10542.81110067
4	83236	29295.065030770309	10537.63475715
4	83260	29307.396698723345	10539.758722963
4	83285	29314.482779141658	10546.762761429
4	83294	29319.266770962574	10548.500386393
4	83304	29320.956132376325	10546.577039356
4	83346	29334.723340662647	10551.915515706
4	83377	29346.844653737162	10557.423584119
4	83389	29350.889475695849	10559.554343843
4	83650	29440.813976155344	10643.591052661
4	83659	29444.419769982755	10642.299584184
4	83678	29455.259875015617	10647.217404182
4	83787	29503.492549736602	10695.325645667
4	83797	29505.229230975569	10694.646069619
4	83812	29512.944716074435	10690.137565047
4	83868	29526.492649931454	10699.741860143
4	83882	29540.883037005983	10712.172321571
4	83913	29554.982394685098	10721.08839174
4	83922	29559.036055923639	10713.256231845
4	83940	29564.033352154811	10701.70791913
4	83995	29586.384889411457	10720.198753342
4	84000	29589.292820151276	10718.861561078
4	84006	29591.69733152268	10719.532557668
4	84013	29593.231755158399	10719.253721719
4	84184	29665.403433378304	10785.997583468
4	84191	29666.269261187716	10782.867465139
4	84200	29670.404965450271	10784.507991107
4	84211	29672.333120265854	10784.202262757
4	84216	29672.476358711687	10768.974966467
4	84221	29673.654783001692	10764.900251609
4	84226	29676.009463025553	10764.367383626
4	84231	29677.79258884049	10761.374722959
4	84236	29679.135384031011	10761.038789773
4	84241	29679.763752646272	10754.026821724
4	84246	29681.502220939239	10723.527804929
4	84257	29684.829027706222	10722.644408183
4	84302	29703.917007159824	10734.785383376
4	84315	29708.968025476045	10731.524347297
4	84338	29715.997199743398	10732.741406107
4	84344	29718.544227560801	10731.846535239
4	84351	29718.901872108158	10730.252708689
4	84360	29721.760807598205	10730.790014403
4	84390	29735.311633555181	10732.73655329
4	84417	29741.383040581289	10730.063385926
4	84425	29743.869401850773	10727.506937622
4	84434	29751.198292164869	10724.261935519
4	84490	29769.584052783905	10742.452866574
4	84496	29770.99829304436	10742.643957819
4	84501	29771.909656212518	10729.066532902
4	84506	29772.683564584288	10725.329823235
4	84511	29775.892916923262	10719.862484759
4	84521	29784.458110898631	10714.804554174
4	84533	29786.996611037634	10716.845258818
4	84542	29788.232312508782	10710.850630935
4	84556	29792.655344606962	10713.242384259
4	84561	29793.528684900064	10711.626416492
4	84566	29794.62635458722	10705.032605869
4	84571	29794.939441284966	10704.210430417
4	84578	29798.96086788134	10707.698605052
4	84591	29801.421835574746	10706.191794626
4	84599	29802.028688797806	10702.498694378
4	84604	29804.457260106109	10698.763805491
4	84610	29804.82896328939	10694.723643164
4	84619	29810.644343016625	10696.939221975
4	84626	29813.215691400371	10697.68925161
4	84632	29816.832824609487	10697.226815051
4	84637	29817.510215571405	10696.940112336
4	84642	29818.426276482962	10694.196796089
4	84649	29820.490160178171	10693.031415885
4	84662	29828.911072224677	10697.030694725
4	84669	29831.807426672165	10699.545777396
4	84684	29836.82995945743	10697.196876609
4	84695	29837.936628431426	10689.582602093
4	84700	29840.77890075855	10690.278093722
4	84707	29845.496197916047	10694.514642029
4	84722	29854.188386629644	10699.972600773
4	84729	29857.79986617741	10700.03012304
4	84784	29878.281447232923	10715.146021261
4	84846	29903.755703086685	10735.209657281
4	84857	29907.070393316892	10737.340012839
4	84955	29937.869273893791	10763.621903452
4	84988	29941.521056350485	10760.253927907
4	84998	29945.954774895031	10753.714104963
4	85003	29946.93733207664	10739.094800472
4	85009	29951.83143732673	10740.733968352
4	85014	29955.742453467324	10738.884112683
4	85026	29961.635376530803	10741.789146551
4	85046	29965.920890424634	10742.510842465
4	85094	29975.926461641204	10743.26075141
4	85113	29984.554881373475	10748.359174979
4	85122	29989.189266652224	10752.654365749

