version 2
run Third-n4-15-20191016-14:54:01-11496
attr configname Third-n4
attr datetime 20191016-14:54:01
attr experiment Third-n4
attr inifile omnetpp.ini
attr iterationvars ""
attr iterationvarsf ""
attr measurement ""
attr network org.omnetpp.queueing.Pizza
attr processid 11496
attr repetition 15
attr replication ""
attr resultdir results
attr runnumber 15
attr seedset 15
param **.PS.maxInventoriedPS 4
param **.U1.interArrivalTime exponential(4s)
param **.U2.interArrivalTime exponential(6s)
param **.PS.serviceTimeForInventoryU1 exponential(1.4s)
param **.PS.serviceTimeForInventoryU2 exponential(1.4s)
param **.PS.serviceTimeDirectU1 exponential(1.8s)
param **.PS.serviceTimeDirectU2 exponential(1.8s)
param **.PS.probabilityProducing 0.8
param **.CS.serviceTimeU1 exponential(2.3s)
param **.CS.serviceTimeU2 exponential(2.3s)

vector 0 Pizza.EntryQueueU1 queueLength:vector ETV
attr interpolationmode sample-hold
attr title "queue length, vector"
vector 1 Pizza.CS queueLength:vector ETV
attr interpolationmode sample-hold
attr title "queue length, vector"
vector 2 Pizza.EntryQueueU2 queueLength:vector ETV
attr interpolationmode sample-hold
attr title "queue length, vector"
vector 3 Pizza.sink lifeTime:vector ETV
attr interpolationmode none
attr title "lifetime of arrived jobs, vector"
attr unit s
vector 4 Pizza.sink lifeTimeU2:vector ETV
attr interpolationmode none
attr title "lifetime of arrived jobs, vector"
attr unit s
0	0	0	0
0	5	8.345496996421	1
0	7	8.569083940082	2
0	9	9.039654571862	3
0	17	10.834429848333	4
0	26	15.176464933403	3
0	32	15.925222711067	4
0	36	17.01754897767	3
0	41	17.438479864819	2
0	50	20.865667934469	1
0	55	21.076023604556	0
0	71	23.95638713054	1
0	73	24.749640996955	0
0	82	25.656171502342	1
0	87	28.742727751387	2
0	88	30.301497961537	1
0	95	32.64496564083	2
0	97	34.33242101542	1
0	105	34.709942977771	2
0	107	34.943983009192	3
0	108	35.531169667339	2
0	114	38.267406781592	1
0	120	39.859311607326	0
0	131	40.226612995815	1
0	132	40.300379249369	0
0	145	42.588962030362	1
0	149	44.341114620665	0
0	158	45.081293701448	1
0	161	45.708959461379	0
0	188	53.2221840668	1
0	192	55.62716447006	2
0	195	55.828250862707	1
0	200	55.856041367791	0
0	208	56.623059335735	1
0	215	63.512691070896	0
0	239	78.001762934255	1
0	240	78.318908334997	0
0	255	82.259747623185	1
0	257	82.557491941107	2
0	258	84.122362206268	1
0	263	85.711626017482	0
0	271	87.215442037551	1
0	275	89.402483539609	2
0	276	89.490952341868	1
0	286	91.155065252375	0
0	305	100.171821255612	1
0	308	101.902579050135	0
0	315	103.333441886623	1
0	317	103.85125563871	2
0	319	104.587368079086	3
0	320	105.331037798472	2
0	325	105.333552212213	1
0	335	107.501588023027	2
0	340	111.838336290755	1
0	346	113.889042610043	0
0	353	115.083179876949	1
0	355	116.06365798105	0
0	377	124.029725166992	1
0	381	126.647077638436	2
0	382	131.158248766658	1
0	388	131.345704891389	2
0	391	132.126999154921	3
0	393	132.589706855901	4
0	394	133.765453045261	3
0	400	135.550459516031	2
0	413	137.630942098398	3
0	418	138.921916925806	4
0	421	142.488282355732	3
0	426	142.645326440674	2
0	432	142.901120428146	3
0	440	146.809341172855	4
0	441	152.504006953204	3
0	446	152.966312825153	2
0	452	154.109529125994	3
0	455	157.325122981405	4
0	457	157.743413211172	5
0	459	157.844956931203	6
0	461	159.523142072387	7
0	462	161.011754794056	6
0	469	163.044776515667	5
0	482	171.044187085977	4
0	488	171.900179165359	5
0	490	172.249962121974	6
0	492	172.980926698245	7
0	494	172.99640156524	8
0	495	174.182736271449	7
0	504	175.305041933161	8
0	508	175.644164676429	7
0	516	177.156445530485	6
0	522	178.208433488368	7
0	525	179.523592313477	8
0	526	180.535233186611	7
0	531	182.590940787282	6
0	536	184.262074896329	5
0	542	185.646595658355	4
0	552	189.555840205808	3
0	559	189.884734421391	2
0	564	190.046948280245	1
0	571	191.21533469306	2
0	574	192.954760355663	1
0	581	195.711107400854	2
0	584	197.920630021284	1
0	590	199.735209891663	0
0	596	201.838278957794	1
0	597	202.77263974867	0
0	633	216.107446853795	1
0	636	216.609930386581	0
0	664	225.688372282983	1
0	665	227.230851930258	0
0	672	227.865752096176	1
0	674	229.023637978732	2
0	675	230.716107474389	1
0	681	230.839773388751	2
0	683	231.203631473307	1
0	690	233.685026178784	2
0	692	233.749285294855	3
0	695	237.714512968286	2
0	700	238.802569274664	1
0	705	240.531336634181	0
0	721	243.715262626207	1
0	723	247.563472108048	0
0	741	251.583410478354	1
0	745	252.790628817378	2
0	747	253.135405991943	3
0	749	254.229075908701	2
0	754	254.804996853436	1
0	761	257.220021011017	0
0	767	257.259260229626	1
0	769	258.404555431099	0
0	775	258.790248348804	1
0	776	258.845000793083	0
0	782	259.027816708107	1
0	783	260.091790304477	0
0	789	260.24765758048	1
0	791	261.46474537293	2
0	795	262.958045210441	3
0	797	264.112203024385	4
0	800	264.689638305714	5
0	802	266.15501667169	4
0	809	269.322690754101	5
0	812	273.138043387925	4
0	818	273.421009980371	5
0	819	274.285220244085	4
0	825	274.572608423751	5
0	827	274.600368207731	6
0	831	275.76232836425	5
0	839	276.901337905068	4
0	848	279.022891473187	3
0	853	279.207558849223	2
0	861	280.303830920703	3
0	866	282.653651040953	4
0	868	285.497948267564	3
0	874	285.991304574728	2
0	880	287.447966085621	3
0	881	288.208984454166	2
0	887	290.521880538122	1
0	894	296.740015739451	0
0	930	306.777814947319	1
0	932	309.306202172102	2
0	933	309.564927517703	1
0	939	310.488931641184	2
0	942	311.757569202158	3
0	943	312.477698389468	2
0	949	312.48249477096	3
0	951	316.840657363365	2
0	956	317.507882891304	1
0	962	319.318253669459	0
0	986	323.991017694874	1
0	987	324.254605607668	0
0	1007	329.608406895439	1
0	1010	332.534692252654	0
0	1023	335.002975915192	1
0	1024	336.643550060992	0
0	1036	339.063340682279	1
0	1037	339.899416954159	0
0	1050	342.075985120502	1
0	1052	342.679636921011	2
0	1055	343.057244561539	1
0	1061	344.065061043984	0
0	1070	345.020409809571	1
0	1071	347.968811511049	0
0	1085	357.352074728317	1
0	1086	360.194895246705	0
0	1092	360.338769228762	1
0	1096	362.998473815569	2
0	1098	365.562894203169	3
0	1099	365.744395517155	2
0	1106	368.828733950054	3
0	1107	368.957880113724	2
0	1114	370.009906036355	1
0	1120	370.015090586392	2
0	1124	372.567839069657	1
0	1135	376.616553570414	2
0	1139	381.376273985325	3
0	1141	382.140303493553	4
0	1143	382.880938444385	5
0	1144	383.442549961088	4
0	1150	384.486564414695	5
0	1151	385.035114297167	4
0	1156	385.431689234972	3
0	1162	385.628645941472	4
0	1165	388.202984907989	3
0	1172	389.852159585518	4
0	1174	390.801451680901	3
0	1181	391.795902466961	2
0	1187	392.008151481862	3
0	1190	392.606194837441	2
0	1195	392.723297978386	1
0	1200	393.273065189746	0
0	1215	394.659414947515	1
0	1221	398.861302724939	0
0	1232	399.268206006323	1
0	1234	402.599224802534	0
0	1249	408.779598924046	1
0	1250	409.091507718292	0
0	1259	410.053421448585	1
0	1265	415.781300666423	0
0	1285	426.96447051464	1
0	1290	435.422638901423	0
0	1300	436.831068416074	1
0	1301	437.081902339456	0
0	1307	437.131446723595	1
0	1310	438.269312457819	0
0	1319	442.455759511677	1
0	1321	443.696996392324	2
0	1322	444.207081022629	1
0	1327	444.310299138563	0
0	1334	445.80684825943	1
0	1336	446.895628046409	2
0	1338	447.989504629699	1
0	1345	450.339340540187	2
0	1346	450.867708575504	1
0	1352	452.794996431981	0
0	1362	454.669285561213	1
0	1366	456.145839563273	2
0	1370	456.472288498384	3
0	1373	459.443690976018	2
0	1378	460.515430306519	1
0	1384	465.841008899354	0
0	1411	473.156319514928	1
0	1415	475.05220848919	0
0	1425	476.800627487616	1
0	1427	478.564052124223	0
0	1441	481.337763830714	1
0	1442	481.364116187428	0
0	1454	485.896407673012	1
0	1455	486.378918879451	0
0	1461	487.214838507852	1
0	1466	490.071725290687	0
0	1478	492.447576808989	1
0	1480	492.800901965654	2
0	1481	492.911707825873	1
0	1487	494.110301682802	0
0	1514	500.046545955281	1
0	1515	501.194353812405	0
0	1554	511.325418382252	1
0	1558	512.713848991962	2
0	1564	513.342852034564	3
0	1565	513.745270371844	2
0	1573	516.314028004202	3
0	1575	517.436254657624	4
0	1579	518.260033803493	5
0	1580	520.714927851375	4
0	1587	520.88125022759	3
0	1596	522.326416004739	2
0	1607	527.458290519794	3
0	1608	528.06146934868	2
0	1614	529.569723778616	1
0	1619	529.754178673501	0
0	1625	530.021693794399	1
0	1627	531.91078814417	0
0	1664	538.376572958647	1
0	1665	542.94920912631	0
0	1677	544.695030702515	1
0	1683	547.590649642335	2
0	1684	547.742469761008	1
0	1690	549.005517087751	0
0	1696	549.327052698175	1
0	1698	551.165854753384	0
0	1710	558.059520273452	1
0	1713	559.36410145863	0
0	1720	561.473722511732	1
0	1721	561.710051844517	0
0	1730	562.640931796225	1
0	1740	567.317596745405	0
0	1747	567.844180458662	1
0	1749	567.918454066083	2
0	1751	567.967468266138	3
0	1755	568.815916930534	4
0	1757	569.235214104736	5
0	1761	572.122731083507	6
0	1765	572.465946257579	7
0	1767	574.603111484347	8
0	1768	575.19028539332	7
0	1775	578.129326113424	6
0	1780	579.399588823755	5
0	1785	579.755620365682	4
0	1792	581.119678176221	5
0	1793	582.009185726348	4
0	1798	582.404073896941	3
0	1804	583.341140751539	2
0	1810	585.802576515107	1
0	1815	585.962688949252	0
0	1819	588.59338522502	1
0	1824	589.891592051136	0
0	1836	591.368994198443	1
0	1839	591.506699102506	2
0	1843	593.305270383161	1
0	1852	595.135403138471	2
0	1853	595.430668897104	1
0	1859	595.94124897669	0
0	1871	598.76986833776	1
0	1872	598.829107912955	0
0	1902	610.333338687697	1
0	1903	610.349053574234	0
0	1909	612.241435061718	1
0	1912	612.906412896759	2
0	1921	614.797020244597	1
0	1929	616.821480592519	0
0	1935	617.485170367193	1
0	1937	619.928591589307	0
0	1983	629.14321275044	1
0	1988	632.515013176086	0
0	1994	632.879213364568	1
0	1995	632.961189360103	0
0	2001	634.485033703603	1
0	2006	636.527595265776	0
0	2025	643.046535256712	1
0	2027	643.298781323099	2
0	2031	645.321220617921	1
0	2036	646.217715943281	0
0	2045	648.481046659209	1
0	2050	650.775358042179	2
0	2055	651.776082445196	3
0	2056	652.894730406891	2
0	2061	653.234366720953	1
0	2066	654.719041893525	0
0	2072	657.144911635239	1
0	2076	660.288937694246	0
0	2109	675.191187839753	1
0	2110	675.532496681863	0
0	2120	678.68152013014	1
0	2124	679.3115266682	2
0	2127	684.273807975122	1
0	2133	685.013860300969	2
0	2134	687.767250207511	1
0	2139	687.927147212327	0
0	2164	694.051959616962	1
0	2166	696.076775861373	2
0	2168	696.307154927659	3
0	2170	697.892576187161	4
0	2175	703.896090595485	3
0	2184	705.052949438604	4
0	2185	705.246746071488	3
0	2190	705.59337916098	2
0	2197	710.889888196982	1
0	2202	710.911643449406	0
0	2208	712.842280637697	1
0	2209	712.913539394471	0
0	2221	713.469077390863	1
0	2224	714.445505635152	2
0	2227	714.676264257646	1
0	2232	715.309020608129	0
0	2238	717.232719273997	1
0	2241	718.636203453493	0
0	2252	719.249651985165	1
0	2262	725.219587638512	0
0	2275	727.930201330063	1
0	2276	728.660154605542	0
0	2294	731.349020165509	1
0	2295	731.979906873425	0
0	2305	735.738990112949	1
0	2307	737.658648844785	2
0	2309	738.212729013127	3
0	2313	740.268043238104	4
0	2315	742.276818729275	5
0	2316	744.881761729014	4
0	2322	745.047775567123	5
0	2324	745.475824319349	6
0	2326	745.60592314147	5
0	2331	746.347705520937	4
0	2336	747.995885778556	3
0	2341	748.188122919838	2
0	2349	751.150647042224	3
0	2350	751.724582270228	2
0	2356	752.664845906206	1
0	2363	755.37303177928	2
0	2366	758.061834438449	3
0	2369	758.296129416799	2
0	2374	761.045339103923	1
0	2381	761.632859006568	2
0	2382	761.828613537138	1
0	2391	764.012977411102	0
0	2411	770.420127648096	1
0	2413	770.932109204562	2
0	2414	770.934445906614	1
0	2422	771.911881215262	2
0	2423	771.92484134073	1
0	2429	772.46828701429	0
0	2435	772.887725478707	1
0	2436	773.451187794898	0
0	2442	773.772399738297	1
0	2444	774.651058574417	0
0	2467	779.336890139554	1
0	2471	780.80710990961	0
0	2489	788.435086288876	1
0	2490	788.543512004184	0
0	2499	788.969484045794	1
0	2500	789.423041590879	0
0	2506	791.569911735165	1
0	2509	794.145135038002	0
0	2523	796.321648349532	1
0	2525	798.260762336308	0
0	2542	801.731591268842	1
0	2547	804.598483133629	2
0	2548	807.888112880354	1
0	2557	809.203318313975	0
0	2565	812.379572831313	1
0	2566	813.22319447734	0
0	2588	818.210200213851	1
0	2589	818.571688252776	0
0	2604	822.733182954554	1
0	2605	823.432660420088	0
0	2614	825.406667056774	1
0	2616	828.188590654869	2
0	2621	834.156966577372	3
0	2622	838.375251295155	2
0	2627	838.902943984798	1
0	2634	840.261863864368	0
0	2641	840.889168238542	1
0	2643	842.059097764795	2
0	2647	847.492136878293	3
0	2648	847.944967799946	2
0	2654	848.366167165197	3
0	2657	848.918773181772	4
0	2658	851.359773142568	3
0	2664	851.625441246375	4
0	2666	851.801838175651	5
0	2667	852.410911362234	4
0	2675	853.638434851599	5
0	2677	855.34814172521	4
0	2682	856.123568545828	3
0	2688	856.370807253529	2
0	2694	856.98879368604	1
0	2700	858.315416292022	0
0	2723	864.38457860004	1
0	2725	865.692045034239	2
0	2726	866.541598190766	1
0	2734	867.537002436463	0
0	2740	867.76845091819	1
0	2742	870.262098932433	0
0	2752	873.088483687564	1
0	2755	876.444328835682	0
0	2765	880.829847074454	1
0	2771	882.631188949823	2
0	2772	882.84081762764	1
0	2782	885.488903856151	0
0	2796	887.979326348761	1
0	2799	888.770896553223	0
0	2806	891.22259010495	1
0	2807	893.468882549529	0
0	2814	896.267579902892	1
0	2815	897.755556575697	0
0	2830	901.945641725511	1
0	2833	909.02305413127	0
0	2840	911.789012078038	1
0	2842	912.610163114461	2
0	2844	914.21605462625	1
0	2853	915.132200232877	0
0	2880	925.68503901887	1
0	2882	926.171262169086	2
0	2884	927.452380980234	3
0	2887	928.560346172351	2
0	2893	929.548667311213	1
0	2899	930.629575784086	0
0	2905	931.044411622536	1
0	2907	931.68758977236	0
0	2913	932.689937558031	1
0	2919	933.987979436862	2
0	2921	936.646889753953	1
0	2926	936.996575358239	0
0	2933	938.163214208347	1
0	2935	938.172651568179	0
0	2941	939.596912291786	1
0	2946	940.332724665304	0
0	2958	941.412867174307	1
0	2959	942.134824727826	0
0	2972	947.917962806085	1
0	2974	947.954916000515	2
0	2976	949.137200955907	3
0	2977	949.70992788802	2
0	2982	950.361468385245	1
0	2987	950.626260240328	0
0	2999	952.50594893036	1
0	3003	955.53713192313	0
0	3010	956.776050471757	1
0	3011	956.895752023645	0
0	3023	962.757403194797	1
0	3024	963.081269853808	0
0	3032	966.372472399591	1
0	3033	967.640097931776	0
0	3039	967.914455338214	1
0	3042	972.512907548713	2
0	3043	973.540687718384	1
0	3048	973.600486196615	0
0	3060	974.848481999066	1
0	3062	976.556895780289	0
0	3074	978.858749558967	1
0	3079	979.802698381784	0
0	3107	985.617775844401	1
0	3111	987.080420026853	2
0	3115	987.877961445887	3
0	3116	988.566207620448	2
0	3122	990.096323029738	1
0	3127	990.487680176711	0
0	3133	990.602482840231	1
0	3136	991.373171666766	2
0	3137	991.421351834206	1
0	3148	997.106108622038	0
0	3164	1001.719173939418	1
0	3166	1002.548173595235	2
0	3168	1002.855884353324	3
0	3170	1003.626180098007	4
0	3173	1005.618979535485	5
0	3174	1005.811050734619	4
0	3180	1006.249700583606	5
0	3182	1006.426233957038	6
0	3186	1009.441417202537	7
0	3189	1010.879904648284	8
0	3191	1012.263989703613	9
0	3195	1013.203212908073	10
0	3196	1014.06501370152	9
0	3201	1014.549377971985	8
0	3206	1015.037197072474	7
0	3214	1017.569830941153	8
0	3217	1018.71229201503	7
0	3222	1021.204844176442	6
0	3227	1022.449447523729	5
0	3234	1026.257752230154	6
0	3236	1027.670971603063	5
0	3241	1028.111809419596	4
0	3246	1029.667451602975	3
0	3251	1032.112779311034	2
0	3257	1033.735905154856	1
0	3263	1034.679123641961	2
0	3265	1036.204213078929	1
0	3270	1037.572490274766	0
0	3306	1050.393502119809	1
0	3308	1051.128548675723	0
0	3314	1052.014848301989	1
0	3315	1052.28283138268	0
0	3328	1052.993106685179	1
0	3330	1053.258660272454	0
0	3344	1059.771832950266	1
0	3346	1060.372183682818	2
0	3351	1061.316115652476	1
0	3356	1061.530001476024	0
0	3370	1063.740731244151	1
0	3372	1064.236942512687	2
0	3373	1067.191596276783	1
0	3379	1069.154502202925	2
0	3386	1073.839326594367	1
0	3391	1074.710684427581	0
0	3398	1075.633133019311	1
0	3402	1077.016020911404	0
0	3408	1077.086314541706	1
0	3412	1079.227874991653	2
0	3414	1080.605330135177	1
0	3419	1080.991420412448	0
0	3447	1083.335582755981	1
0	3448	1083.568195769912	0
0	3476	1091.28377836068	1
0	3480	1094.220692532094	0
0	3489	1096.187344679892	1
0	3493	1098.016073322933	2
0	3496	1098.12173443173	3
0	3497	1098.675805556827	2
0	3503	1099.794692678357	3
0	3504	1101.402583440865	2
0	3511	1103.724229086196	1
0	3517	1103.922349206631	2
0	3519	1105.002625208599	1
0	3524	1105.209403964416	0
0	3538	1108.697378334722	1
0	3542	1115.200148360604	2
0	3545	1115.843633869081	1
0	3550	1116.011630927302	0
0	3565	1120.385067124598	1
0	3568	1121.268378846034	0
0	3597	1134.704348956375	1
0	3598	1135.81707118159	0
0	3617	1139.794809958371	1
0	3621	1140.960597945628	2
0	3622	1141.997870382454	1
0	3630	1142.451467713065	2
0	3632	1144.52987007968	1
0	3638	1145.783126251227	2
0	3643	1147.547938844788	3
0	3645	1149.726921354036	4
0	3646	1153.031724751817	3
0	3652	1153.508656894716	2
0	3657	1153.640962815351	1
0	3662	1153.860202118087	0
0	3684	1160.899474882967	1
0	3687	1161.156821591836	2
0	3689	1162.561593648585	1
0	3694	1163.412116482736	0
0	3708	1166.175766728481	1
0	3712	1167.794993598824	0
0	3729	1170.28469015229	1
0	3734	1172.252610200326	2
0	3736	1172.814855716633	3
0	3737	1176.496013795221	2
0	3744	1178.071363435421	3
0	3750	1179.730790699125	4
0	3752	1181.33502484172	5
0	3753	1181.960698915944	4
0	3759	1182.134338617389	5
0	3761	1183.116320502155	6
0	3764	1184.582541012668	5
0	3769	1187.436698778336	4
0	3775	1188.40534870192	5
0	3777	1189.630770884977	6
0	3778	1190.063057451006	5
0	3791	1199.657741396395	4
0	3797	1201.041237478151	3
0	3803	1201.18570774954	4
0	3805	1201.225073550614	5
0	3809	1205.606822564377	4
0	3815	1206.361667102359	5
0	3818	1208.892579367062	4
0	3824	1210.871774006126	3
0	3833	1212.836028621222	2
0	3838	1212.979603863829	1
0	3847	1219.305616557801	0
0	3883	1227.053519674817	1
0	3885	1228.806829956126	2
0	3887	1229.031102531452	3
0	3890	1233.17650751283	2
0	3896	1233.837685329452	1
0	3905	1234.67917636211	2
0	3906	1236.846481578591	1
0	3913	1240.129827416363	0
0	3932	1248.158998162071	1
0	3936	1249.642140768072	2
0	3937	1250.318789408475	1
0	3944	1257.009579606259	2
0	3945	1258.247088051089	1
0	3953	1262.632035889292	0
0	3959	1263.656205418442	1
0	3963	1265.740975655985	2
0	3964	1265.848803674028	1
0	3969	1266.084499848365	0
0	3975	1267.524523715937	1
0	3977	1268.094153944487	0
0	3984	1270.809456442101	1
0	3986	1272.088990250593	0
0	3992	1273.034924913799	1
0	3994	1273.11629429914	2
0	3999	1274.447197215096	3
0	4000	1274.696684112604	2
0	4008	1284.367138049653	1
0	4014	1285.917290842835	0
0	4025	1286.695015285845	1
0	4027	1289.541185175979	0
0	4036	1292.098837640089	1
0	4038	1295.541532383037	2
0	4041	1295.929928077066	1
0	4047	1296.990401271904	2
0	4048	1297.369255088176	1
0	4053	1297.791417731602	0
0	4095	1312.142904912873	1
0	4097	1312.157188825967	2
0	4100	1314.962572669892	1
0	4106	1316.957072491992	0
0	4113	1319.917474969267	1
0	4116	1322.458829866432	0
0	4135	1333.753880372139	1
0	4137	1335.514227490561	2
0	4138	1336.381537999107	1
0	4143	1336.957812720442	0
0	4154	1338.908912245215	1
0	4156	1343.229303489466	2
0	4166	1348.257684679626	1
0	4171	1349.644416042966	0
0	4191	1352.127071477032	1
0	4193	1353.090807865203	0
0	4214	1357.869946955507	1
0	4223	1361.790140159883	0
0	4238	1365.121395438243	1
0	4246	1369.04289797	2
0	4249	1373.195226798678	1
0	4254	1373.35509694377	0
0	4261	1375.860008938514	1
0	4266	1379.898730139165	2
0	4268	1382.079323064697	3
0	4269	1382.333033487905	2
0	4274	1383.16714851126	1
0	4279	1383.668113210953	0
0	4288	1385.948158432536	1
0	4291	1390.018329060139	0
0	4297	1391.417725590509	1
0	4298	1391.479780397127	0
0	4317	1393.391555402902	1
0	4321	1394.851425377787	0
0	4327	1395.139745780577	1
0	4331	1395.901634881532	2
0	4337	1399.027581449423	3
0	4343	1404.173585163109	2
0	4352	1408.563634972359	3
0	4353	1409.2038421904	2
0	4358	1409.539453535021	1
0	4364	1409.611868568643	2
0	4365	1411.381634511325	1
0	4373	1412.401574060203	0
0	4382	1416.109118440778	1
0	4383	1416.377396514969	0
0	4402	1421.929328455733	1
0	4403	1422.72554425085	0
0	4409	1422.952312471315	1
0	4411	1423.647194034	0
0	4468	1437.403989017972	1
0	4470	1437.878983358853	2
0	4473	1443.662200056692	1
0	4479	1444.319825620053	0
0	4488	1446.118510816067	1
0	4495	1447.445073334074	0
0	4535	1460.144988930304	1
0	4536	1463.587142613124	0
0	4554	1473.827261458875	1
0	4556	1475.661483051451	2
0	4558	1476.376268071782	3
0	4559	1476.98216661136	2
0	4565	1477.598198042473	3
0	4567	1478.014591469203	4
0	4568	1478.098345213669	3
0	4574	1483.069620510989	2
0	4586	1484.778964893679	3
0	4590	1486.262584047805	4
0	4594	1492.342243033303	5
0	4595	1496.109144949566	4
0	4602	1498.081117316503	3
0	4608	1498.653760557883	4
0	4611	1499.976871187249	3
0	4617	1501.668304298349	2
0	4623	1504.376895987154	3
0	4626	1505.646764855518	4
0	4627	1506.615140220395	3
0	4632	1506.669804910261	2
0	4639	1508.341827324855	1
0	4644	1509.880377933852	0
0	4671	1518.371907782421	1
0	4673	1520.160953320429	2
0	4674	1521.210057977197	1
0	4681	1522.885363821963	0
0	4704	1528.934066145771	1
0	4705	1529.887601939551	0
0	4716	1530.736478126774	1
0	4717	1531.041495095969	0
0	4728	1534.390814615235	1
0	4730	1534.397523903458	2
0	4733	1542.164420347716	1
0	4740	1542.895751466966	0
0	4765	1554.015735768345	1
0	4767	1555.22206058366	2
0	4769	1556.286808117145	3
0	4771	1556.440452276327	4
0	4773	1557.020768442855	5
0	4774	1557.809450670739	4
0	4779	1560.393698525266	3
0	4784	1561.310010170268	2
0	4792	1564.236666525052	3
0	4794	1566.81935188719	2
0	4801	1568.437548041785	3
0	4802	1569.063648331111	2
0	4808	1569.246986564148	3
0	4814	1571.420767444746	4
0	4818	1573.539645837786	3
0	4824	1574.970298098571	2
0	4830	1576.43539305459	3
0	4833	1577.016714095493	4
0	4834	1578.842627978793	3
0	4840	1579.430817832531	2
0	4846	1580.899671494858	1
0	4854	1581.507745317721	0
0	4892	1597.895440934858	1
0	4893	1598.657772164961	0
0	4904	1600.578352988036	1
0	4905	1601.313029015832	0
0	4924	1606.15659979213	1
0	4925	1606.372886956112	0
0	4938	1609.698110726544	1
0	4944	1614.8257852068	0
0	4958	1620.155454332551	1
0	4959	1620.935236572581	0
0	4973	1627.319554541058	1
0	4977	1630.289665097105	2
0	4982	1630.720764560314	3
0	4983	1631.856818037088	2
0	4989	1637.449908723223	1
0	4995	1638.753575953817	2
0	4998	1640.131273370284	1
0	5004	1642.112812044757	2
0	5006	1642.993702683042	1
0	5012	1644.509655062966	0
0	5030	1648.325453413048	1
0	5032	1649.96219980487	2
0	5041	1654.394837418646	1
0	5048	1656.185516253349	2
0	5050	1656.953721288173	3
0	5051	1656.959480052199	2
0	5057	1657.941739714152	1
0	5062	1659.734531558677	0
0	5068	1660.313833398374	1
0	5071	1661.196985735691	2
0	5077	1665.467195080191	3
0	5080	1667.572801237313	2
0	5085	1667.694025671024	1
0	5092	1668.825934409581	0
0	5108	1671.428306407254	1
0	5115	1678.969222455328	2
0	5119	1684.011129029487	3
0	5121	1684.633729091612	4
0	5124	1686.269041225634	3
0	5130	1687.987202535273	2
0	5140	1690.023931541974	1
0	5149	1691.426550702672	2
0	5150	1692.647181910166	1
0	5156	1692.715562769673	2
0	5159	1693.157026519812	3
0	5161	1693.466636234729	4
0	5163	1693.617064356002	5
0	5164	1695.846287844457	4
0	5172	1697.825222318815	5
0	5174	1699.953788673993	6
0	5175	1700.664263697615	5
0	5180	1703.813565553156	4
0	5186	1705.75980748287	3
0	5192	1705.95353062517	4
0	5201	1709.456267087092	5
0	5203	1711.595469727615	6
0	5204	1712.034278163531	5
0	5211	1714.924454244478	6
0	5213	1715.198124900217	7
0	5214	1715.390086296208	6
0	5222	1718.284219323632	5
0	5234	1732.531644417552	4
0	5239	1732.775133205459	3
0	5244	1734.211259567998	2
0	5250	1734.503908702839	3
0	5253	1735.573705460949	4
0	5254	1735.800776520655	3
0	5261	1737.160977323242	2
0	5268	1739.281850788535	3
0	5269	1740.854835226494	2
0	5274	1741.180619747321	1
0	5282	1742.024113061108	0
0	5289	1743.092091224294	1
0	5290	1743.199653183646	0
0	5353	1760.015958405803	1
0	5354	1761.217973835279	0
0	5360	1761.539245620872	1
0	5363	1763.008374807582	0
0	5369	1763.139987551544	1
0	5370	1763.235314390285	0
0	5386	1766.377918782923	1
0	5387	1769.796401414424	0
0	5404	1773.440511170548	1
0	5405	1773.640557045512	0
0	5431	1779.402483998471	1
0	5432	1781.211473510894	0
0	5443	1784.898342536092	1
0	5444	1785.322326833338	0
0	5454	1785.576696110618	1
0	5457	1786.180927711998	0
0	5469	1788.33236969852	1
0	5473	1788.895059088928	2
0	5475	1791.051238359799	3
0	5477	1791.152271090096	4
0	5479	1793.063836278036	3
0	5490	1799.815540045151	4
0	5491	1799.944767592328	3
0	5497	1800.715993317793	2
0	5502	1801.46544498969	1
0	5514	1805.132332712117	0
0	5521	1807.292236538095	1
0	5527	1808.88741826832	2
0	5528	1810.357885395649	1
0	5534	1810.845468331281	2
0	5536	1812.109936356765	1
0	5542	1812.421737878117	2
0	5544	1813.315537965984	3
0	5545	1813.574565782129	2
0	5550	1813.611709884199	1
0	5564	1820.009321452392	0
0	5588	1828.847387007449	1
0	5590	1831.644393238086	2
0	5594	1833.843326313132	3
0	5595	1834.354044610444	2
0	5604	1837.678458280008	1
0	5610	1840.308934556592	0
0	5616	1840.314810186167	1
0	5618	1844.082716846486	0
0	5649	1850.878904310145	1
0	5650	1850.979335502093	0
0	5675	1861.100938176903	1
0	5676	1863.909381182184	0
0	5696	1870.248068979886	1
0	5701	1872.763850046877	0
0	5720	1877.105929577564	1
0	5722	1878.952578926964	2
0	5724	1881.033576788994	3
0	5729	1885.717306968583	2
0	5735	1886.567011223006	3
0	5737	1888.569101376105	2
0	5742	1889.041542189863	1
0	5750	1890.595040130346	0
0	5778	1898.490036352512	1
0	5782	1901.410983402537	2
0	5783	1901.646907789312	1
0	5789	1902.199746433467	2
0	5790	1904.171736479993	1
0	5799	1907.815769865265	0
0	5838	1927.957296658436	1
0	5840	1929.313569598142	2
0	5841	1935.135778809499	1
0	5850	1938.730618253175	2
0	5855	1943.086560412539	1
0	5860	1943.782793852705	0
0	5867	1945.325633487881	1
0	5870	1946.789087424238	0
0	5885	1953.586426358134	1
0	5886	1956.126002204939	0
0	5902	1959.327384148237	1
0	5903	1959.601498392709	0
0	5909	1959.995105660856	1
0	5910	1961.071903458855	0
0	5916	1961.390594517781	1
0	5921	1963.223503458103	2
0	5923	1963.268553100474	3
0	5925	1963.582593802249	4
0	5928	1966.038889112911	5
0	5931	1972.324854231691	4
0	5938	1977.224944360837	3
0	5945	1978.277927088687	2
0	5950	1978.568194351821	1
0	5955	1979.796182861258	0
0	5962	1980.486458457778	1
0	5963	1980.704829030766	0
0	5990	1983.074258155063	1
0	5993	1984.14724157825	0
0	5999	1984.545485726578	1
0	6011	1993.678360000788	2
0	6012	1994.1387912892	1
0	6018	1995.648973828782	2
0	6022	1998.69037328586	1
0	6031	2003.318387824127	0
0	6045	2008.059605665729	1
0	6047	2008.465602144285	2
0	6048	2008.936053812084	1
0	6053	2009.198871747802	0
0	6065	2009.951215847995	1
0	6066	2010.524612316347	0
0	6074	2011.242525746424	1
0	6075	2011.654034766274	0
0	6082	2011.812713013751	1
0	6084	2012.368626465614	0
0	6090	2012.697243386997	1
0	6092	2013.17684044326	2
0	6094	2013.673335057863	1
0	6102	2015.645890572382	2
0	6104	2016.659616376916	3
0	6106	2018.611032738202	4
0	6107	2018.805497385552	3
0	6112	2019.904332119426	2
0	6117	2020.072542784767	1
0	6127	2022.783528363671	2
0	6128	2022.844407695641	1
0	6137	2026.821302926697	0
0	6155	2032.789096614401	1
0	6157	2034.246109957484	2
0	6158	2035.208150596369	1
0	6167	2038.533934842883	2
0	6169	2040.817039094817	1
0	6179	2042.801608485668	2
0	6184	2047.171580987362	3
0	6185	2048.106228411404	2
0	6191	2050.253363604797	1
0	6204	2054.35586320014	2
0	6207	2055.132784284127	1
0	6214	2057.559563003413	2
0	6216	2058.170162227004	3
0	6219	2061.026244284586	2
0	6227	2062.438893124975	3
0	6228	2063.743796573827	2
0	6237	2065.432328685804	3
0	6239	2067.313060528536	4
0	6242	2069.318636208001	3
0	6249	2078.208814525767	2
0	6255	2078.358512366892	3
0	6258	2078.466946603894	2
0	6266	2080.20883335332	1
0	6272	2082.992826246271	0
0	6285	2085.842890230435	1
0	6286	2086.62906291161	0
0	6299	2091.286236656327	1
0	6302	2092.475887611192	0
0	6312	2093.807872370854	1
0	6316	2096.506816353029	0
0	6323	2096.902260043348	1
0	6324	2097.853108764556	0
0	6347	2099.730940782108	1
0	6349	2100.46788692186	2
0	6351	2102.077352839777	3
0	6353	2103.303701483301	4
0	6358	2104.196528277967	5
0	6361	2109.573065844554	4
0	6367	2110.629968941162	3
0	6372	2112.156689603914	2
0	6384	2116.685378582206	1
0	6392	2120.964929796877	2
0	6394	2122.151234640734	1
0	6400	2123.998156818836	0
0	6412	2125.39504425269	1
0	6414	2126.112513745467	0
0	6442	2132.380962806667	1
0	6446	2133.977703070668	2
0	6448	2134.813844855902	3
0	6449	2135.551555211647	2
0	6454	2136.356211752635	1
0	6460	2136.434504722709	2
0	6461	2136.705200277869	1
0	6475	2139.742439958109	2
0	6477	2140.140045146789	1
0	6482	2140.198064947191	0
0	6488	2141.821316842259	1
0	6489	2142.252048861727	0
0	6516	2150.540962633823	1
0	6517	2151.394429013658	0
0	6534	2156.279566164272	1
0	6538	2159.352713141558	2
0	6539	2163.071254837181	1
0	6548	2166.617677757168	2
0	6551	2168.201600165987	1
0	6559	2169.778095454182	2
0	6562	2171.933165606472	1
0	6568	2173.559814078081	0
0	6575	2178.198135285559	1
0	6576	2179.751242539305	0
0	6595	2181.711437120242	1
0	6596	2182.457504385294	0
0	6631	2193.689364393171	1
0	6632	2203.193110568129	0
0	6657	2207.518481971532	1
0	6660	2210.737909379838	0
0	6669	2212.338326764832	1
0	6674	2214.597680303245	2
0	6675	2215.870460204198	1
0	6681	2216.190122027878	0
0	6690	2217.758594074975	1
0	6693	2220.380713228019	0
0	6716	2227.726938556296	1
0	6718	2228.644985670214	2
0	6720	2229.65390940228	3
0	6722	2229.781037882338	4
0	6724	2231.326463378633	5
0	6728	2233.677806473338	6
0	6730	2234.460591835639	7
0	6731	2234.751954750547	6
0	6737	2236.531877118817	5
0	6743	2238.233766924257	4
0	6750	2240.151524129642	3
0	6758	2244.435135162028	2
0	6765	2248.080691295618	3
0	6767	2248.818361146567	2
0	6773	2249.095624156031	1
0	6779	2249.540837932699	2
0	6780	2249.816171597696	1
0	6786	2251.820138939201	0
0	6792	2252.034546145256	1
0	6793	2253.341737713153	0
0	6802	2255.494256646014	1
0	6804	2257.8145316747	0
0	6826	2263.017708444474	1
0	6827	2269.00061101459	0
0	6834	2269.649352883284	1
0	6835	2271.10031534159	0
0	6854	2280.418364332452	1
0	6857	2285.406696495538	0
0	6863	2286.511813002847	1
0	6865	2287.417805685587	0
0	6873	2291.633859637238	1
0	6875	2292.324478493229	2
0	6876	2292.531083685304	1
0	6881	2292.938088721525	0
0	6891	2297.82001645134	1
0	6892	2298.050645987622	0
0	6913	2306.317786226002	1
0	6917	2307.193259921247	2
0	6920	2309.522941016835	3
0	6921	2309.581814408442	2
0	6927	2310.993695851024	1
0	6933	2311.475788555786	2
0	6934	2311.530335138402	1
0	6940	2311.928856219313	0
0	6949	2315.29245936796	1
0	6950	2316.746760864048	0
0	6957	2318.545376668339	1
0	6958	2318.609457436584	0
0	6972	2320.04354631164	1
0	6977	2322.266146845496	0
0	6985	2324.116046041644	1
0	6987	2324.290756421663	2
0	6988	2328.32795791038	1
0	6993	2332.179807438864	0
0	7002	2333.740012956363	1
0	7003	2334.255797889062	0
0	7021	2337.652381285455	1
0	7022	2340.346508770026	0
0	7037	2345.51487470163	1
0	7045	2347.89455914737	2
0	7046	2349.608498408604	1
0	7054	2350.418889402975	2
0	7060	2353.79558856789	3
0	7067	2355.347188344307	2
0	7072	2355.678940392387	1
0	7083	2363.351533446329	0
0	7090	2365.837819512313	1
0	7091	2368.788880942234	0
0	7098	2369.135067665602	1
0	7099	2369.19197151483	0
0	7106	2370.982468237661	1
0	7108	2375.026527175744	2
0	7109	2375.908652869048	1
0	7114	2376.182825667305	0
0	7133	2379.666166130846	1
0	7135	2380.758204612735	0
0	7160	2388.45375822026	1
0	7162	2388.930701319673	2
0	7164	2390.311918629746	3
0	7166	2391.656168590987	4
0	7168	2392.251301197371	5
0	7173	2394.747929961724	4
0	7179	2396.222039530619	3
0	7185	2397.343856182261	4
0	7191	2399.135535733238	5
0	7192	2399.419569388151	4
0	7198	2400.758134456703	3
0	7205	2402.680525359168	2
0	7212	2406.73961685719	1
0	7217	2407.473359412195	0
0	7224	2408.178179375855	1
0	7225	2409.10561928659	0
0	7232	2409.938504653873	1
0	7233	2410.781890210628	0
0	7258	2416.612138261529	1
0	7261	2418.564552483571	0
0	7267	2418.631096033091	1
0	7268	2420.287757420114	0
0	7274	2421.076413781848	1
0	7278	2423.026643780261	2
0	7279	2423.370716712372	1
0	7287	2427.487229087762	0
0	7307	2428.695749292842	1
0	7309	2429.571082494779	2
0	7313	2430.752163630977	3
0	7316	2432.524430503221	2
0	7327	2435.398825453402	3
0	7328	2435.830767018022	2
0	7336	2438.324806064681	3
0	7342	2440.059209209979	2
0	7348	2441.162142042769	1
0	7354	2441.982022391281	2
0	7358	2442.612323216262	3
0	7359	2442.75737149373	2
0	7365	2446.471480032865	3
0	7366	2446.52636213743	2
0	7373	2449.802936225868	1
0	7378	2449.977429972078	0
0	7384	2450.358357535901	1
0	7388	2452.908079594583	0
0	7444	2467.645418830208	1
0	7447	2468.424203017823	0
0	7454	2469.066393280969	1
0	7457	2471.057776540499	0
0	7478	2481.813480867447	1
0	7480	2483.156030479447	2
0	7483	2484.107824268608	3
0	7484	2484.593920778265	2
0	7490	2486.305691756904	1
0	7496	2488.347201452653	2
0	7503	2494.516396188929	1
0	7508	2494.62536300284	0
0	7527	2499.075049116697	1
0	7532	2501.704609475369	2
0	7534	2502.760252830964	3
0	7535	2504.858928485833	2
0	7540	2504.910847547394	1
0	7547	2505.147897752157	2
0	7549	2506.821645452309	1
0	7558	2509.073325762671	2
0	7560	2509.389819871414	3
0	7562	2509.896338755918	2
0	7568	2510.131928589163	3
0	7569	2511.733022697109	2
0	7575	2513.072036802573	3
0	7577	2514.342863819467	4
0	7579	2515.076147576874	3
0	7584	2515.364586256338	2
0	7591	2516.239952527774	1
0	7599	2519.668419295833	0
0	7606	2521.10758458387	1
0	7608	2521.80259974321	2
0	7610	2522.35777423923	3
0	7611	2523.254551776066	2
0	7619	2526.229665402391	1
0	7627	2529.193255528849	0
0	7634	2530.190776636335	1
0	7635	2531.559248033927	0
0	7657	2533.648214084554	1
0	7661	2535.771761505809	2
0	7667	2538.520453422921	3
0	7668	2538.640522291495	2
0	7674	2540.085317472487	1
0	7684	2544.659465610627	0
0	7699	2549.835011174164	1
0	7703	2550.590412283007	2
0	7705	2551.928702225036	3
0	7707	2554.027761058647	4
0	7710	2554.958946102032	3
0	7717	2557.738703729308	4
0	7718	2562.714459197663	3
0	7724	2567.36724143939	2
0	7730	2568.689103337442	1
0	7739	2571.069727918784	0
0	7778	2584.120528435976	1
0	7779	2585.335217708659	0
0	7788	2587.109085830831	1
0	7790	2588.412966317748	2
0	7795	2590.043739727023	1
0	7805	2592.023804983146	0
0	7826	2594.425040525461	1
0	7828	2594.670629902905	2
0	7832	2598.302518920204	3
0	7835	2598.889502093477	2
0	7842	2599.934342021929	3
0	7846	2602.001559278361	4
0	7848	2606.045472893176	5
0	7849	2608.015358918909	4
0	7855	2608.030798062771	5
0	7856	2608.053008303828	4
0	7863	2609.389507125254	3
0	7868	2609.504617519604	2
0	7875	2609.972883238895	3
0	7877	2610.96154525918	2
0	7882	2611.007615191623	1
0	7886	2613.192363267801	2
0	7888	2613.438667290226	3
0	7892	2617.244970266087	4
0	7895	2617.977359252608	3
0	7900	2618.32564304556	2
0	7909	2623.44057063367	3
0	7910	2623.871954172515	2
0	7915	2624.552883170622	1
0	7919	2625.853068533099	2
0	7925	2628.707964130364	1
0	7931	2628.980401039494	2
0	7935	2630.414024008892	3
0	7938	2631.610454059194	2
0	7944	2631.6881065631	3
0	7948	2634.705790078705	2
0	7954	2635.35733716861	1
0	7960	2635.789708226224	2
0	7961	2635.857445578645	1
0	7966	2636.393937223458	0
0	7973	2636.650276780033	1
0	7975	2638.567047865476	0
0	7983	2638.929833737733	1
0	7985	2639.647361651638	2
0	7987	2641.500342156749	1
0	7992	2641.745513044916	0
0	7998	2643.555885340433	1
0	8002	2644.34713954815	0
0	8008	2644.72704323933	1
0	8010	2647.324242699766	2
0	8012	2647.389848327062	3
0	8019	2652.487971856993	4
0	8023	2654.169409783717	5
0	8025	2655.419251823808	6
0	8029	2656.27144263701	7
0	8031	2658.311066692869	8
0	8034	2660.384029331009	7
0	8042	2663.360852062506	8
0	8043	2668.608117529147	7
0	8048	2668.873967287269	6
0	8055	2670.683451922975	5
0	8066	2672.998968398418	4
0	8073	2674.221234037699	3
0	8078	2676.033375767209	2
0	8083	2676.256472129288	1
0	8089	2678.146064158811	2
0	8090	2678.175974706208	1
0	8098	2678.918052820472	0
0	8134	2689.210030852067	1
0	8136	2689.52031605922	0
0	8152	2694.219325061173	1
0	8155	2695.818474602295	2
0	8156	2695.916627642631	1
0	8164	2701.68445071328	2
0	8165	2702.059770728905	1
0	8172	2704.495414028758	2
0	8174	2706.025940454021	3
0	8176	2708.66826616272	4
0	8177	2711.205457680998	3
0	8184	2713.908656724786	4
0	8187	2716.623519899399	3
0	8193	2720.782308179505	2
0	8198	2722.654771117972	1
0	8203	2722.854741668046	0
0	8221	2730.222127501607	1
0	8223	2731.48092232523	0
0	8282	2748.816345163737	1
0	8285	2753.516060419899	0
0	8293	2759.735360605382	1
0	8295	2761.504344961204	2
0	8296	2761.92358443479	1
0	8303	2763.684114205784	0
0	8315	2768.004069810264	1
0	8317	2769.100060773464	2
0	8319	2769.701130424835	1
0	8326	2772.291248670209	2
0	8328	2773.594531980016	3
0	8331	2774.992735347612	4
0	8333	2776.715232145953	5
0	8335	2777.88574923055	6
0	8340	2779.623293583966	5
0	8347	2780.833863897487	6
0	8349	2781.30714712931	7
0	8350	2782.579058460262	6
0	8359	2787.930432424768	7
0	8361	2788.180830203679	6
0	8367	2788.19192713094	7
0	8369	2789.258143360349	8
0	8371	2792.37139028012	7
0	8378	2795.644436418969	6
0	8383	2795.675137436055	5
0	8395	2801.027775122603	6
0	8398	2802.284278445596	5
0	8403	2802.662889053819	4
0	8409	2805.128302395195	3
0	8415	2805.625570158771	4
0	8419	2806.051461589024	5
0	8423	2806.927953668045	6
0	8424	2806.970108286077	5
0	8429	2808.141422936105	4
0	8436	2810.593373894989	3
0	8442	2811.088990995811	4
0	8444	2812.110537372467	5
0	8446	2813.995564016398	6
0	8447	2814.051579928795	5
0	8452	2814.252637395939	4
0	8457	2815.178082921748	3
0	8464	2816.75105137711	2
0	8469	2817.943651420016	1
0	8475	2820.874180946773	2
0	8476	2820.981248520687	1
0	8484	2821.256660830139	2
0	8486	2821.378214920652	3
0	8490	2824.200096960614	4
0	8494	2826.630863305901	5
0	8496	2826.875814697945	6
0	8497	2828.720108185449	5
0	8504	2830.024353077571	4
0	8509	2830.137948808878	3
0	8515	2830.811867145606	4
0	8519	2834.813038415477	5
0	8521	2837.6929180525	4
0	8527	2838.113708810125	5
0	8529	2839.570044011145	4
0	8534	2840.818815274755	3
0	8540	2841.091106004152	4
0	8544	2843.460216309567	3
0	8549	2846.768658884023	2
0	8553	2847.014119791933	3
0	8560	2854.010436249207	2
0	8568	2855.412605587043	1
0	8574	2855.897719996581	0
0	8591	2861.650411988045	1
0	8593	2861.727348607556	2
0	8596	2862.531558666464	3
0	8599	2863.579420301038	4
0	8600	2863.888097833427	3
0	8605	2864.704428957576	2
0	8612	2866.012802855024	3
0	8614	2866.785216719905	2
0	8622	2868.549752896339	3
0	8624	2870.606997241586	4
0	8626	2871.644698199324	3
0	8632	2873.403047931466	2
0	8639	2874.429491258651	3
0	8640	2874.544817631742	2
0	8652	2881.053945036808	1
0	8662	2884.578453041272	0
0	8670	2885.582999508349	1
0	8671	2885.739908783663	0
0	8689	2888.047512540503	1
0	8691	2888.244536908063	2
0	8692	2888.384298731175	1
0	8701	2893.421440487315	2
0	8702	2895.884277873797	1
0	8708	2896.901835752973	0
0	8732	2901.954220885528	1
0	8734	2903.630335158759	2
0	8735	2905.900923654351	1
0	8742	2910.138004605511	2
0	8744	2910.948238874431	3
0	8747	2913.977196564776	2
0	8752	2915.150299215855	1
0	8760	2920.674922502686	0
0	8771	2921.289067350908	1
0	8773	2921.460281604772	2
0	8776	2922.260709446606	1
0	8783	2922.915907485185	2
0	8786	2925.807815934707	1
0	8791	2926.605176139948	0
0	8799	2926.880311691447	1
0	8804	2928.606288264482	2
0	8805	2928.79145147937	1
0	8810	2929.328871518853	0
0	8821	2929.668271092435	1
0	8825	2933.113912778998	0
0	8855	2937.892296755352	1
0	8856	2938.503132966564	0
0	8868	2943.458815423664	1
0	8869	2945.156551955437	0
0	8886	2947.671877726446	1
0	8888	2949.197990981967	2
0	8891	2951.715770081016	1
0	8896	2952.785631282321	0
0	8902	2953.861210807697	1
0	8904	2954.479257249497	2
0	8907	2954.889041726475	3
0	8908	2955.379405775808	2
0	8915	2955.65653625526	1
0	8923	2958.381568119593	0
0	8939	2960.028751871622	1
0	8940	2960.308682446639	0
0	8957	2964.352054041609	1
0	8959	2964.784606994784	2
0	8962	2968.340774382667	1
0	8967	2968.700502346843	0
0	8980	2973.411942841066	1
0	8982	2974.072166258237	2
0	8983	2974.07800669264	1
0	8993	2975.957812254958	2
0	8994	2976.182249920722	1
0	8999	2976.254443380611	0
0	9030	2986.114895818801	1
0	9032	2986.855872288357	2
0	9037	2989.967698437722	1
0	9047	2992.534714923173	0
0	9067	2997.846551934837	1
0	9069	2998.357167198042	2
0	9070	2999.421038746607	1
0	9078	3001.718197547887	0
0	9090	3003.427929409811	1
0	9091	3004.639735412689	0
0	9101	3007.195903462282	1
0	9104	3012.076035337441	0
0	9113	3014.379927746682	1
0	9114	3015.115217104023	0
0	9126	3016.538597189551	1
0	9128	3017.256652990933	2
0	9130	3017.262208920701	3
0	9134	3018.448776359785	4
0	9136	3021.312072207128	5
0	9137	3022.729605878189	4
0	9143	3023.846242834984	3
0	9149	3023.985829077971	4
0	9150	3024.148846960951	3
0	9155	3027.651427399481	2
0	9161	3027.801157682997	1
0	9168	3029.270385197403	2
0	9174	3031.153117663173	1
0	9179	3033.054122613403	0
0	9187	3034.51368967748	1
0	9188	3034.930232552388	0
0	9194	3035.734275581072	1
0	9198	3036.394463439158	2
0	9201	3038.973015015867	1
0	9209	3043.177076001892	0
0	9213	3043.60734386242	1
0	9218	3047.136776242988	0
0	9242	3052.603735444836	1
0	9244	3055.6362225426	2
0	9246	3056.264970007924	3
0	9248	3056.892238754527	4
0	9250	3057.198997047793	5
0	9253	3061.362001617004	4
0	9258	3063.292469434426	3
0	9263	3063.617914899081	2
0	9273	3067.547603035905	1
0	9278	3067.848119330014	0
0	9284	3068.441008415016	1
0	9288	3071.753894304667	0
0	9299	3073.096692275442	1
0	9300	3073.661011976486	0
0	9323	3082.572945269278	1
0	9327	3084.691721344093	0
0	9333	3085.144445250043	1
0	9335	3086.672679768437	0
0	9347	3087.116924755626	1
0	9353	3095.812378717809	2
0	9354	3096.094241587478	1
0	9359	3096.738912556238	0
0	9365	3097.425061121005	1
0	9366	3099.101269122735	0
0	9388	3103.223755625853	1
0	9389	3103.263448820788	0
0	9396	3103.914227593068	1
0	9397	3104.376512391457	0
0	9427	3117.592684624861	1
0	9430	3119.66422416399	0
0	9437	3120.978212406452	1
0	9438	3121.273004793669	0
0	9461	3127.583161651728	1
0	9462	3127.761154951438	0
0	9472	3132.314405810009	1
0	9475	3134.339713296299	0
0	9488	3137.171460423195	1
0	9493	3140.241721615201	0
0	9508	3142.274650818197	1
0	9510	3145.010464349311	0
0	9523	3147.896711996649	1
0	9524	3148.757153672801	0
0	9545	3157.666510778395	1
0	9546	3158.047452072916	0
0	9552	3158.76042574875	1
0	9555	3160.80380449906	2
0	9559	3164.279079853543	1
0	9565	3164.937939457748	2
0	9567	3165.023669949375	3
0	9573	3166.625698568667	2
0	9579	3167.884073060652	1
0	9586	3169.277653699373	2
0	9587	3169.638894473081	1
0	9595	3171.792649856285	0
0	9609	3174.139300508294	1
0	9611	3176.715951790373	2
0	9616	3177.727415831507	1
0	9627	3183.343889243218	2
0	9630	3184.120364655747	3
0	9634	3185.074437343889	4
0	9636	3187.643569904248	5
0	9637	3189.136786275644	4
0	9642	3189.249850198341	3
0	9652	3193.192186621291	2
0	9659	3195.135293009255	3
0	9661	3197.854227978421	4
0	9665	3199.43948211163	5
0	9666	3199.823979472758	4
0	9673	3200.651834605026	5
0	9674	3200.673116631326	4
0	9679	3200.914502077608	3
0	9689	3203.014602983942	4
0	9690	3207.383241382367	3
0	9698	3208.448563431433	4
0	9699	3209.468922141255	3
0	9705	3210.942170524305	4
0	9708	3213.476068094336	3
0	9714	3214.336173651558	2
0	9720	3214.604228294712	3
0	9722	3215.710168071765	4
0	9725	3216.903763273379	5
0	9727	3219.694549935244	6
0	9728	3221.740635221338	5
0	9734	3221.991962819711	6
0	9737	3222.539978008139	5
0	9743	3223.266215646727	4
0	9748	3224.697474299414	3
0	9754	3224.791991713909	4
0	9756	3225.213194101027	5
0	9757	3226.064413933234	4
0	9762	3226.905264602187	3
0	9768	3227.082054931265	4
0	9770	3229.092214135609	5
0	9771	3230.668942960713	4
0	9775	3231.414066497026	5
0	9779	3234.025367466961	4
0	9784	3234.34455576127	3
0	9795	3240.897203944214	4
0	9797	3241.884263131005	5
0	9800	3243.001090903638	4
0	9807	3244.07902243986	3
0	9813	3244.126931161585	4
0	9814	3244.219763816159	3
0	9826	3245.512656468746	4
0	9828	3249.416047482083	5
0	9831	3253.970310824853	4
0	9837	3255.44551985224	3
0	9845	3262.294097981354	2
0	9850	3263.331943007557	1
0	9857	3264.114353370607	2
0	9860	3264.561544598281	3
0	9861	3266.674286161024	2
0	9867	3267.069416063758	3
0	9869	3267.813328156855	4
0	9870	3267.91297356451	3
0	9878	3268.87702935072	4
0	9879	3270.886695385757	3
0	9888	3274.351034038671	4
0	9889	3275.031310753985	3
0	9894	3275.607666342429	2
0	9899	3276.825116013074	1
0	9907	3280.08671246918	2
0	9909	3280.192158300953	3
0	9910	3282.074025469637	2
0	9915	3283.846580420239	1
0	9927	3288.787206282567	2
0	9928	3288.855340719836	1
0	9932	3289.470625105563	2
0	9936	3292.085549766069	1
0	9941	3292.437568612594	0
0	9972	3301.580434234592	1
0	9975	3302.602289528626	0
0	9997	3306.874933460588	1
0	10002	3309.432690184865	0
0	10018	3311.138323859882	1
0	10020	3312.830024233809	2
0	10024	3314.662865452463	3
0	10031	3317.974284321178	2
0	10040	3321.974540925168	3
0	10046	3325.906708520933	4
0	10047	3326.641800227299	3
0	10054	3327.147877845018	4
0	10055	3328.156958089905	3
0	10060	3328.555830591058	2
0	10066	3328.587325221428	3
0	10068	3329.789132006852	2
0	10074	3330.158624303769	3
0	10078	3334.265750777704	2
0	10083	3335.930544609708	1
0	10089	3336.244057625849	2
0	10090	3336.275647576995	1
0	10096	3336.951008126975	2
0	10099	3340.110032940303	1
0	10108	3344.639255070077	0
0	10121	3347.284551665564	1
0	10122	3347.436264293681	0
0	10134	3350.138479503901	1
0	10135	3351.93956913821	0
0	10142	3355.965879601402	1
0	10145	3359.136409989042	0
0	10172	3365.59478524922	1
0	10174	3366.10341536285	2
0	10178	3366.619610366318	3
0	10180	3367.041894305243	4
0	10183	3371.290444289126	3
0	10188	3371.56215417235	2
0	10194	3372.362609865425	3
0	10199	3375.070333520582	2
0	10206	3377.952257304823	3
0	10207	3381.881339971763	2
0	10215	3382.848579464477	1
0	10220	3382.987882524782	0
0	10227	3384.785425176391	1
0	10230	3385.891172499855	2
0	10235	3388.44283711006	1
0	10241	3389.711753135913	2
0	10242	3389.796251981614	1
0	10249	3390.979692990559	0
0	10255	3390.98612552932	1
0	10257	3391.80987255475	2
0	10258	3392.085821292159	1
0	10264	3392.763023138189	2
0	10265	3393.46531865088	1
0	10270	3393.56466174246	0
0	10276	3393.889631910378	1
0	10279	3395.514302977043	2
0	10280	3395.867044592113	1
0	10288	3396.286065318341	2
0	10289	3397.789140064811	1
0	10296	3399.403542072058	0
0	10302	3399.885747821839	1
0	10309	3402.214216071594	0
0	10324	3407.444358581856	1
0	10326	3407.979166827479	2
0	10327	3409.699732947975	1
0	10332	3409.804910695342	0
0	10338	3410.202924958539	1
0	10340	3410.88475198074	0
0	10353	3412.851014961525	1
0	10354	3413.053954499272	0
0	10395	3419.294032748235	1
0	10397	3421.143442383292	2
0	10398	3421.348076947184	1
0	10404	3422.771782721058	0
0	10410	3422.831289047773	1
0	10418	3426.438815583262	2
0	10419	3427.448670367054	1
0	10425	3427.876198251475	2
0	10428	3428.295250306039	3
0	10431	3429.420522698266	2
0	10437	3429.809420148261	3
0	10438	3430.643759613781	2
0	10447	3431.360947034162	3
0	10448	3431.618414667811	2
0	10453	3433.252915475089	1
0	10463	3438.691498324232	2
0	10464	3442.863188657974	1
0	10469	3443.145516198023	0
0	10525	3453.990486987829	1
0	10531	3460.034410545498	2
0	10533	3460.745861935764	3
0	10535	3462.041735589354	4
0	10538	3462.944163477322	3
0	10547	3465.427536484676	4
0	10548	3468.812163616748	3
0	10553	3468.989713039749	2
0	10565	3471.382390609478	1
0	10571	3473.207872256798	0
0	10584	3476.767006453979	1
0	10585	3476.847328447125	0
0	10598	3479.795937797093	1
0	10600	3480.330574454723	2
0	10603	3482.237685970823	3
0	10604	3484.156986581411	2
0	10615	3486.310955035014	1
0	10620	3486.468413271316	0
0	10635	3490.016265295104	1
0	10641	3492.80487115207	2
0	10642	3493.819478896616	1
0	10648	3494.159310522531	2
0	10650	3496.026650607723	3
0	10654	3497.782103456943	2
0	10663	3501.630199058583	3
0	10664	3502.500436694966	2
0	10670	3504.240763394371	1
0	10677	3505.920969087699	0
0	10689	3508.027831391423	1
0	10690	3508.713214561646	0
0	10703	3509.986603721613	1
0	10707	3511.080925701003	0
0	10713	3512.207703459807	1
0	10717	3513.163795449022	2
0	10719	3513.604098795989	3
0	10721	3514.160185031155	4
0	10722	3514.190965918342	3
0	10728	3514.376731301604	4
0	10729	3515.447763637322	3
0	10734	3515.940349364108	2
0	10746	3524.848051612228	1
0	10752	3524.960653522924	2
0	10754	3525.018253279506	3
0	10758	3526.319870637485	4
0	10759	3526.961690977304	3
0	10765	3527.791585965953	4
0	10766	3527.961350333564	3
0	10774	3532.123880778403	2
0	10779	3534.794643210775	1
0	10786	3537.477895458985	0
0	10792	3537.843009196282	1
0	10794	3538.846569616983	2
0	10795	3539.228189279068	1
0	10800	3539.277087622102	0
0	10813	3542.716243467983	1
0	10817	3543.948876914251	0
0	10828	3546.064071357212	1
0	10829	3548.505194037365	0
0	10856	3556.984615788265	1
0	10860	3559.695208950659	2
0	10863	3561.348883234293	1
0	10871	3562.167470127012	2
0	10873	3565.9802370012	3
0	10874	3566.456866556513	2
0	10879	3567.22275711571	1
0	10885	3567.303676229177	2
0	10889	3568.600877404582	1
0	10896	3570.48118124734	0
0	10961	3595.89600692634	1
0	10967	3601.576431053838	2
0	10972	3603.0809856146	1
0	10978	3603.442261903138	0
0	10985	3611.541037524675	1
0	10986	3611.633089989515	0
0	10998	3615.339260769555	1
0	11002	3616.324617597927	0
0	11028	3623.35507410127	1
0	11030	3623.666367917026	2
0	11032	3624.737983073101	3
0	11036	3628.620949800695	4
0	11037	3629.447337286514	3
0	11045	3631.409217440429	4
0	11047	3631.972451477497	5
0	11048	3632.91468848209	4
0	11053	3633.400731923181	3
0	11058	3633.506511587617	2
0	11067	3634.020448182068	3
0	11068	3634.565501342287	2
0	11072	3636.251168375902	3
0	11075	3637.030060443468	2
0	11081	3637.186163077918	3
0	11086	3640.742941248253	2
0	11094	3642.249227015691	1
0	11100	3642.507325256289	2
0	11102	3644.841516502694	3
0	11103	3645.303721666306	2
0	11107	3646.201392128402	3
0	11109	3647.205647806479	4
0	11121	3657.900115459462	3
0	11127	3658.052581718801	4
0	11132	3665.045063305636	3
0	11139	3667.173921604358	4
0	11143	3668.441095380643	5
0	11144	3669.255578170817	4
0	11150	3675.703433644796	3
0	11155	3675.981192444533	2
0	11160	3676.168367201696	1
0	11169	3679.275684595782	2
0	11170	3679.480721953697	1
0	11176	3679.576326934533	2
0	11177	3681.802634792659	1
0	11182	3683.132095352291	0
0	11188	3684.243867882512	1
0	11189	3684.372887173732	0
0	11197	3685.884294304336	1
0	11199	3686.824725164532	0
0	11213	3689.467256475355	1
0	11216	3690.330511049863	2
0	11221	3691.474199103893	3
0	11223	3693.937406731517	2
0	11228	3694.205932134066	1
0	11233	3695.088219401199	0
0	11244	3695.795051230319	1
0	11246	3695.989683367995	2
0	11248	3698.293830990406	1
0	11256	3700.846675341807	0
0	11284	3706.503277239704	1
0	11286	3708.811412146107	2
0	11287	3709.400963480399	1
0	11296	3711.125997627453	2
0	11299	3713.614105637635	1
0	11307	3716.224870287661	2
0	11309	3717.085853880221	3
0	11311	3717.29880525747	4
0	11313	3717.495993932547	5
0	11314	3718.859757390199	4
0	11319	3718.925750408613	3
0	11327	3723.626016851388	4
0	11329	3725.763844562258	5
0	11331	3726.708551327568	6
0	11336	3733.497160666567	5
0	11341	3733.646354239512	4
0	11347	3735.137071237277	3
0	11355	3735.917845678644	2
0	11366	3736.894875849142	1
0	11373	3739.062445424599	0
0	11405	3747.574194217224	1
0	11407	3747.779005119052	2
0	11416	3755.317244378794	1
0	11422	3755.749331929801	0
0	11432	3761.318321782656	1
0	11435	3763.229135938829	2
0	11437	3763.487533893283	3
0	11440	3766.60912664324	2
0	11447	3768.617389156596	3
0	11448	3769.229913506936	2
0	11457	3775.153638631662	3
0	11458	3775.830738108226	2
0	11463	3779.419398866605	1
0	11470	3780.569514350705	2
0	11471	3780.623863634713	1
0	11477	3781.471333090947	2
0	11478	3783.558756782067	1
0	11483	3783.951596923122	0
0	11490	3784.613884640635	1
0	11491	3785.476963760922	0
0	11498	3787.281723704574	1
0	11500	3787.680952749843	2
0	11504	3788.399403975615	3
0	11509	3789.139288524257	4
0	11510	3790.375710400377	3
0	11515	3790.494917393309	2
0	11521	3794.09192725507	1
0	11529	3796.304195929357	2
0	11530	3800.627904216955	1
0	11536	3801.55686401088	2
0	11537	3801.628266584104	1
0	11546	3804.174873983971	2
0	11548	3804.728529384253	3
0	11551	3806.765978278564	2
0	11559	3809.460868457359	1
0	11565	3809.902851917174	0
0	11573	3811.915131814418	1
0	11574	3811.975141416381	0
0	11588	3815.557223171408	1
0	11589	3815.720489172461	0
0	11595	3816.072557036086	1
0	11597	3817.246816332206	0
0	11619	3822.84371440306	1
0	11624	3823.60097071577	0
0	11633	3825.416280037149	1
0	11634	3826.888868130728	0
0	11667	3832.62512725134	1
0	11668	3833.885906981707	0
0	11679	3837.9068948868	1
0	11682	3839.354289129194	2
0	11683	3841.315033632882	1
0	11690	3841.814709495053	2
0	11691	3841.83418531821	1
0	11701	3844.027481270577	0
0	11713	3844.715899666816	1
0	11718	3851.17948926611	2
0	11721	3854.585548410683	1
0	11726	3854.616411880769	0
0	11733	3855.608760419446	1
0	11735	3856.580043993324	0
0	11756	3866.765713008175	1
0	11759	3869.634136547583	0
0	11768	3870.66449615779	1
0	11771	3874.49555855653	0
0	11778	3878.345468615173	1
0	11779	3878.797153320277	0
0	11785	3879.037260567922	1
0	11788	3880.439424731632	2
0	11794	3883.173485604813	1
0	11799	3883.332025324707	0
0	11817	3885.958843013329	1
0	11821	3889.922586268856	2
0	11822	3892.276670121763	1
0	11829	3893.24768051742	2
0	11831	3894.912220979365	3
0	11832	3896.230620850586	2
0	11838	3896.788328281975	1
0	11843	3897.225428144891	0
0	11852	3898.515897821681	1
0	11855	3902.986237371775	2
0	11856	3907.938783380499	1
0	11862	3908.4047209713	2
0	11864	3908.856141060181	1
0	11871	3910.843767800019	2
0	11873	3912.762971325971	3
0	11876	3915.446380643227	2
0	11885	3917.167926327371	3
0	11886	3918.976144488537	2
0	11892	3922.57866510645	1
0	11898	3923.418820311144	0
0	11914	3925.444260217929	1
0	11921	3930.364109564363	0
0	11948	3941.584580016925	1
0	11952	3944.674291490744	2
0	11953	3946.573287963406	1
0	11959	3947.464836277844	2
0	11963	3949.680018030269	1
0	11969	3949.897660060406	0
0	11990	3957.960152095365	1
0	11994	3958.094234129004	2
0	11996	3958.123528278872	3
0	11999	3959.638197811014	2
0	12007	3964.066635161495	1
0	12013	3964.108052513562	2
0	12014	3964.171953673947	1
0	12020	3964.865446354401	2
0	12021	3967.077762513906	1
0	12030	3969.951633011435	0
0	12051	3976.854128671862	1
0	12055	3978.868638405714	2
0	12056	3979.00711634214	1
0	12062	3979.313460038982	2
0	12064	3981.089252604172	1
0	12070	3984.016178057548	0
0	12094	3991.208485617908	1
0	12095	3991.470443898207	0
0	12107	3994.923003800775	1
0	12109	3998.288913633458	2
0	12111	3999.538675420771	3
0	12112	4000.114150348457	2
0	12118	4000.929143827234	1
0	12129	4004.621969714523	0
0	12141	4006.379376955174	1
0	12146	4012.256227517806	0
0	12171	4026.06921455259	1
0	12172	4026.614665140886	0
0	12179	4027.175880292813	1
0	12181	4028.779255560843	0
0	12207	4035.638081698461	1
0	12208	4035.979569686682	0
0	12218	4036.53518672306	1
0	12222	4041.770058057339	2
0	12224	4047.075460260786	3
0	12228	4048.009347389711	4
0	12229	4050.442715911247	3
0	12237	4057.906707388462	2
0	12243	4058.769423777913	3
0	12245	4059.045277883948	4
0	12248	4059.48885304093	5
0	12252	4060.244501415431	6
0	12253	4065.233838540784	5
0	12260	4065.980878990601	6
0	12263	4066.666118158387	7
0	12265	4067.499758164499	8
0	12266	4067.650668643987	7
0	12271	4067.868156254571	6
0	12280	4068.494383842142	5
0	12287	4069.368950035781	6
0	12289	4069.635908836502	7
0	12291	4069.780238420726	8
0	12292	4069.815846442267	7
0	12298	4070.972947731264	6
0	12304	4071.72325378911	7
0	12306	4073.081385459428	6
0	12315	4079.186311289681	5
0	12323	4081.736940267607	4
0	12329	4082.166203738011	5
0	12331	4082.222792508134	6
0	12334	4082.603096410255	7
0	12335	4082.621315388641	6
0	12341	4084.735527647766	5
0	12351	4088.013811745593	6
0	12353	4088.528950233579	7
0	12354	4088.620843309096	6
0	12362	4088.878736837146	7
0	12365	4090.600012087781	8
0	12366	4090.752953495557	7
0	12372	4092.449953567495	6
0	12379	4093.327762452811	5
0	12384	4095.158734215161	4
0	12390	4096.167740217851	3
0	12395	4097.022217325983	2
0	12400	4097.287547960763	1
0	12408	4100.3438536367	0
0	12414	4100.439738890177	1
0	12415	4105.632011237821	0
0	12452	4116.653034632498	1
0	12456	4118.015006063109	2
0	12460	4118.689692650891	1
0	12465	4118.722670691054	0
0	12475	4120.801824388856	1
0	12477	4121.041574335626	2
0	12483	4123.354960576643	1
0	12488	4123.729113903986	0
0	12496	4125.292324421269	1
0	12497	4125.35548055574	0
0	12503	4125.512757033429	1
0	12505	4125.837714961699	0
0	12521	4128.658789701345	1
0	12522	4131.844014604451	0
0	12528	4132.345518726156	1
0	12529	4132.98720509979	0
0	12556	4140.515449981016	1
0	12560	4143.729783170502	2
0	12565	4144.364708477085	1
0	12571	4145.550176735428	2
0	12573	4145.828903043011	3
0	12574	4146.151783657383	2
0	12584	4150.699548333008	1
0	12589	4151.006119499349	0
0	12613	4160.547467860272	1
0	12624	4163.846950270218	2
0	12628	4164.060444954776	3
0	12629	4164.147175173238	2
0	12635	4164.157622189825	3
0	12639	4167.073621586838	4
0	12641	4167.551186440655	5
0	12642	4168.21603682121	4
0	12648	4169.052754287236	3
0	12653	4169.731222592624	2
0	12660	4172.96459894763	3
0	12664	4174.24371406698	4
0	12667	4174.824521198495	3
0	12674	4177.767356957535	2
0	12681	4179.33307317055	3
0	12684	4184.292971824724	4
0	12685	4184.401544455297	3
0	12690	4186.211912996839	2
0	12695	4186.593779011841	1
0	12701	4187.357322757711	2
0	12702	4187.849938491927	1
0	12707	4188.161099876594	0
0	12721	4194.859018890999	1
0	12724	4197.539782252749	2
0	12725	4199.199551385869	1
0	12733	4200.080290996952	0
0	12747	4202.398908842184	1
0	12749	4202.968008390045	0
0	12787	4217.25778608212	1
0	12789	4217.972974931328	2
0	12791	4218.537761515341	3
0	12793	4219.612942099437	4
0	12794	4223.760108403518	3
0	12799	4224.17993998518	2
0	12804	4224.962383513908	1
0	12809	4225.676794811472	0
0	12815	4226.387066390114	1
0	12816	4227.416375886338	0
0	12820	4227.736833827732	1
0	12825	4232.375670442833	0
0	12836	4233.076012481198	1
0	12839	4235.721831555925	0
0	12855	4238.685155508008	1
0	12857	4238.876189041978	2
0	12859	4240.113328796047	3
0	12860	4241.262033659771	2
0	12868	4243.180270039089	3
0	12869	4243.53090569448	2
0	12875	4246.389699084975	3
0	12876	4246.408223947863	2
0	12885	4247.366259950314	1
0	12890	4247.52929209	0
0	12910	4251.290956460078	1
0	12911	4252.09551091088	0
0	12922	4254.673543975243	1
0	12923	4256.888809342773	0
0	12931	4258.091939687718	1
0	12935	4261.84746271525	2
0	12937	4262.845743429993	3
0	12939	4262.9092601291	4
0	12940	4263.660192086141	3
0	12946	4268.702678508597	2
0	12952	4270.402606637675	1
0	12962	4273.652764643786	2
0	12964	4273.913885061679	3
0	12966	4274.838310520644	4
0	12970	4275.491635664593	5
0	12971	4275.773426500744	4
0	12976	4276.288160459879	3
0	12985	4277.54713050552	2
0	12992	4278.089947791959	3
0	12997	4279.385142907469	2
0	13003	4281.01540387349	3
0	13004	4282.009603140247	2
0	13011	4282.715189058661	3
0	13014	4284.090269885397	2
0	13022	4288.512050921635	1
0	13030	4290.466563768094	2
0	13032	4290.855813790562	3
0	13034	4292.030435132716	4
0	13038	4294.852125819785	5
0	13039	4297.179613102877	4
0	13045	4299.997131757074	3
0	13050	4300.220794632276	2
0	13057	4302.319152289627	1
0	13063	4303.298797473695	0
0	13071	4304.576856250628	1
0	13074	4306.412123361606	0
0	13100	4313.023958666311	1
0	13103	4314.372458526971	0
0	13117	4315.918101919731	1
0	13123	4319.348717992607	0
0	13134	4321.155534838349	1
0	13136	4321.442006108181	2
0	13140	4323.810331978976	1
0	13148	4328.438411325655	0
0	13171	4330.474715169769	1
0	13174	4330.738182516958	0
0	13188	4332.99487435608	1
0	13194	4334.348299805708	2
0	13195	4334.537131317087	1
0	13201	4335.299506859303	0
0	13234	4344.324349265997	1
0	13240	4345.844165484076	2
0	13242	4348.291115875934	1
0	13248	4350.410194607763	0
0	13260	4353.264893528793	1
0	13265	4355.742868881772	0
0	13296	4369.075505556264	1
0	13301	4372.996482254239	0
0	13317	4375.172011914298	1
0	13318	4375.543441513368	0
0	13342	4378.4082551227	1
0	13347	4380.071049699733	2
0	13348	4381.538274704692	1
0	13354	4383.582914585843	0
0	13377	4390.415796085146	1
0	13381	4391.07967513804	0
0	13391	4395.17447776463	1
0	13395	4397.814657364126	0
0	13409	4403.012699504471	1
0	13411	4403.197341031412	2
0	13416	4407.484018036615	1
0	13423	4407.71626043505	2
0	13426	4409.434918450412	1
0	13432	4410.900955812101	0
0	13443	4413.549766701978	1
0	13446	4414.841298603143	0
0	13476	4428.98070113817	1
0	13478	4429.089220674778	2
0	13480	4430.439439588099	3
0	13481	4431.663349546143	2
0	13486	4432.715867706743	1
0	13500	4437.423331204117	0
0	13512	4442.974615096393	1
0	13516	4443.352967850329	2
0	13519	4447.878981604434	1
0	13526	4447.994651067686	0
0	13539	4450.236090505224	1
0	13543	4451.778347551917	2
0	13548	4453.338953877168	1
0	13554	4453.606479152989	0
0	13560	4454.042614811458	1
0	13563	4456.565149880679	0
0	13577	4457.875458889342	1
0	13587	4461.228895593601	2
0	13590	4463.57656017431	1
0	13598	4464.395439902714	0
0	13621	4472.135416236769	1
0	13622	4472.391401894674	0
0	13630	4473.770893751791	1
0	13633	4474.416182308626	2
0	13636	4481.274863258752	3
0	13637	4481.330526238555	2
0	13642	4481.373289167821	1
0	13648	4481.460405127291	2
0	13651	4484.583092341647	1
0	13657	4484.895104447555	2
0	13660	4486.357803609915	3
0	13662	4486.453820038748	4
0	13663	4486.636175282591	3
0	13669	4487.598948480998	4
0	13671	4488.165123405885	3
0	13677	4489.785215212192	2
0	13685	4490.728064432525	3
0	13687	4492.37207874268	2
0	13696	4495.675146895547	3
0	13702	4498.691102439784	4
0	13704	4501.540145091168	5
0	13705	4501.893781172014	4
0	13710	4502.718182237545	3
0	13715	4503.919588648437	2
0	13725	4508.221511625757	1
0	13730	4508.227960292148	0
0	13741	4509.732269455065	1
0	13745	4512.197859202098	0
0	13769	4518.921643520207	1
0	13773	4519.360134255705	2
0	13774	4520.185965758692	1
0	13782	4521.065895208828	0
0	13793	4525.39792105411	1
0	13800	4527.640061497787	2
0	13804	4529.949805627018	1
0	13809	4531.080310188102	0
0	13817	4532.130644350961	1
0	13820	4535.257746798713	0
0	13846	4546.578953801508	1
0	13851	4547.37595940241	0
0	13860	4549.802344608705	1
0	13865	4552.434325570259	0
0	13874	4555.119735982055	1
0	13875	4556.593397336719	0
0	13888	4564.495926594441	1
0	13891	4564.683342572669	0
0	13897	4565.032347854666	1
0	13898	4565.084642696855	0
0	13909	4567.007108728934	1
0	13911	4567.308560771525	2
0	13914	4570.772167221172	3
0	13915	4570.870308340041	2
0	13922	4575.095602240212	1
0	13932	4578.546784082351	2
0	13933	4580.639652855128	1
0	13939	4582.515164812174	0
0	13945	4582.777438353261	1
0	13946	4584.168930532347	0
0	13967	4587.723887181459	1
0	13968	4588.517826173354	0
0	13978	4589.388554509464	1
0	13982	4593.146860111918	0
0	13989	4593.799551214642	1
0	13990	4594.040352111018	0
0	13997	4595.434329535956	1
0	14000	4596.137199939432	0
0	14007	4596.810444630093	1
0	14009	4596.899894027126	2
0	14010	4597.236957201058	1
0	14022	4601.90417565831	0
0	14028	4601.991682810258	1
0	14034	4604.299852326871	0
0	14043	4605.884303510284	1
0	14045	4605.886657032554	2
0	14046	4606.794932198047	1
0	14051	4607.103182275378	0
0	14064	4609.505626106714	1
0	14066	4610.185278823993	0
0	14075	4615.159970421614	1
0	14079	4617.87650966218	2
0	14082	4622.348429886924	1
0	14089	4627.394902602084	2
0	14090	4630.112776739821	1
0	14096	4631.827111626688	0
0	14109	4632.889070805134	1
0	14113	4633.005450573409	2
0	14117	4640.956086583443	3
0	14118	4641.738824519811	2
0	14125	4643.617805101807	1
0	14134	4647.404685514157	2
0	14138	4648.887006288565	3
0	14139	4652.441896278117	2
0	14145	4654.231646563945	3
0	14147	4654.429719230888	4
0	14148	4654.696684194303	3
0	14153	4655.193994685511	2
0	14164	4658.367206458512	3
0	14167	4659.897505509135	4
0	14172	4663.487979073722	3
0	14177	4663.52323405847	2
0	14185	4666.165720843069	1
0	14190	4667.301093441576	0
0	14196	4667.766565147427	1
0	14197	4670.575558516738	0
0	14216	4672.321267834184	1
0	14217	4673.279848643562	0
0	14221	4674.056619308087	1
0	14229	4678.802158916093	2
0	14231	4679.009679862646	3
0	14232	4679.243516902355	2
0	14238	4679.705655862172	1
0	14243	4679.709045905948	0
0	14251	4681.021854420943	1
0	14253	4681.311139965097	0
0	14277	4687.0166138181	1
0	14278	4687.040068985513	0
0	14314	4695.343700417611	1
0	14317	4696.062458840949	0
0	14327	4697.58590627097	1
0	14334	4702.077204939416	0
0	14354	4708.907504763488	1
0	14356	4710.121180896804	2
0	14359	4711.559399958283	1
0	14369	4714.162713363297	2
0	14371	4714.408222920776	3
0	14374	4715.948692131042	2
0	14381	4716.049422135705	3
0	14383	4717.6752737448	4
0	14385	4718.868700475931	5
0	14386	4719.281795913206	4
0	14392	4721.109457926891	3
0	14402	4722.744879398709	2
0	14408	4723.149278915972	3
0	14409	4723.312902902474	2
0	14420	4728.1563878863	1
0	14426	4728.262804481883	2
0	14427	4728.392537894841	1
0	14434	4730.383145146234	2
0	14437	4731.708243489402	1
0	14443	4731.713183406641	2
0	14445	4732.564767708699	1
0	14451	4732.891214792254	2
0	14452	4732.950858503449	1
0	14458	4734.71335835528	2
0	14460	4735.762613926586	3
0	14463	4736.679222225962	2
0	14470	4739.520523132054	1
0	14476	4739.660846604955	2
0	14480	4741.5122059124	3
0	14481	4742.094952167729	2
0	14487	4743.085734648838	1
0	14492	4744.111051872489	0
0	14498	4745.362529923058	1
0	14499	4745.993726333042	0
0	14503	4746.871483377155	1
0	14508	4749.441448933973	2
0	14518	4759.412216728333	3
0	14519	4759.517992780074	2
0	14524	4760.598317434348	1
0	14530	4763.953137942892	0
0	14555	4765.465393022626	1
0	14556	4765.677315536587	0
0	14590	4776.144103943159	1
0	14594	4778.477113804036	2
0	14600	4781.455782986662	3
0	14601	4781.466302012566	2
0	14608	4784.504574998525	1
0	14613	4786.411841984009	0
0	14626	4788.262956879151	1
0	14630	4790.095071186693	0
0	14649	4794.009714973688	1
0	14651	4798.183293584053	2
0	14656	4801.31591702837	3
0	14657	4802.036437870899	2
0	14663	4803.356049271899	1
0	14670	4805.147397292298	2
0	14678	4813.436205501758	3
0	14679	4813.876296989503	2
0	14689	4815.996441388917	3
0	14690	4817.370889541763	2
0	14695	4817.633157800089	1
0	14705	4821.5369840547	2
0	14706	4823.154844095431	1
0	14711	4824.109613261857	0
0	14739	4828.277490699674	1
0	14741	4829.259503181947	2
0	14743	4829.380382089581	3
0	14744	4829.409793439277	2
0	14750	4829.697331563658	3
0	14751	4829.915182816923	2
0	14756	4830.16198674416	1
0	14761	4831.147712425409	0
0	14767	4831.48453267071	1
0	14768	4833.919910758377	0
0	14778	4834.835683785778	1
0	14787	4837.112235169011	2
0	14794	4842.784238102377	3
0	14795	4842.82021141835	2
0	14805	4847.111294743885	1
0	14815	4851.678120146624	0
0	14826	4854.687067247169	1
0	14828	4854.77149887328	2
0	14829	4855.738286046096	1
0	14835	4855.947344011963	2
0	14836	4856.131029578906	1
0	14841	4856.73984360871	0
0	14847	4857.23468938787	1
0	14850	4858.748914443393	0
0	14856	4859.407894611095	1
0	14857	4859.605975018836	0
0	14870	4865.425516809569	1
0	14872	4865.549771956215	2
0	14874	4866.093182687411	3
0	14875	4866.50847628513	2
0	14882	4868.005496389773	1
0	14888	4868.488675983236	2
0	14892	4871.522353752167	3
0	14893	4872.904547575212	2
0	14898	4873.996827005442	1
0	14903	4875.50772861191	0
0	14937	4882.946385265914	1
0	14939	4883.066236492746	0
0	14955	4884.934164229457	1
0	14959	4891.551035589843	0
0	14968	4893.870156387404	1
0	14972	4896.545866874968	2
0	14975	4897.309973692173	3
0	14976	4898.935541175491	2
0	14982	4900.658472761961	1
0	14988	4901.424299099884	2
0	14990	4901.733514623979	3
0	14993	4902.128797769763	4
0	14994	4903.463357814536	3
0	15003	4906.085088010315	2
0	15010	4908.088744350821	3
0	15012	4910.034490736805	4
0	15013	4910.617518632321	3
0	15019	4911.182760360541	2
0	15024	4911.739330160183	1
0	15030	4912.783087535422	0
0	15036	4913.428785410329	1
0	15040	4916.185532875585	2
0	15045	4918.975472086262	1
0	15051	4919.255468102196	2
0	15055	4921.15987138037	1
0	15060	4921.285419857255	0
0	15088	4932.08796239965	1
0	15089	4933.278514091489	0
0	15109	4939.801438736775	1
0	15111	4940.085632934598	2
0	15113	4945.512434069888	3
0	15114	4946.583226551025	2
0	15121	4949.903811019457	1
0	15127	4950.847232254286	0
0	15133	4950.919736457706	1
0	15134	4951.987079746468	0
0	15141	4952.080530950671	1
0	15142	4952.203119814107	0
0	15158	4953.794417470289	1
0	15160	4954.147900659091	2
0	15162	4954.869063792338	3
0	15163	4955.363714535188	2
0	15169	4955.568303494366	3
0	15170	4956.051003076219	2
0	15177	4956.553655077606	3
0	15179	4956.571739408926	4
0	15184	4959.755288841697	5
0	15186	4962.090848330814	4
0	15193	4964.143114697626	5
0	15203	4971.697991656839	6
0	15205	4972.483803002191	7
0	15207	4972.7733129689	8
0	15208	4974.114721744054	7
0	15213	4975.201373975278	6
0	15219	4976.278961775507	5
0	15224	4977.461868100962	4
0	15229	4977.918691499819	3
0	15234	4978.169134745665	2
0	15243	4982.21852519829	1
0	15249	4982.860482908356	2
0	15250	4982.921101756632	1
0	15256	4983.355980705331	2
0	15258	4983.484627744057	3
0	15260	4985.175620374966	2
0	15268	4988.648435703007	3
0	15269	4988.749718954462	2
0	15274	4989.103832417083	1
0	15281	4991.109580270243	2
0	15283	4991.597970251788	1
0	15288	4991.802561193388	0
0	15315	4995.784654209599	1
0	15321	5000.584852474053	0
0	15335	5003.363334657031	1
0	15337	5003.584122225277	2
0	15343	5007.533754366765	3
0	15345	5008.526883296463	4
0	15346	5009.761479483163	3
0	15354	5011.103923630252	4
0	15356	5011.209605615031	5
0	15359	5011.45313081917	6
0	15361	5011.836261298287	7
0	15362	5012.877617054334	6
0	15369	5018.611126456195	5
0	15376	5019.764862050547	6
0	15380	5021.600271695958	7
0	15381	5022.072023846124	6
0	15388	5023.245397886266	7
0	15393	5027.723329904038	8
0	15395	5029.672393639515	9
0	15399	5031.242963117452	10
0	15400	5031.632908913908	9
0	15405	5032.067378941528	8
0	15414	5034.407066189789	7
0	15422	5037.769308177662	6
0	15428	5040.363943241588	7
0	15429	5040.592530317165	6
0	15436	5041.879552794499	5
0	15441	5042.644930390118	4
0	15450	5049.73772613878	3
0	15457	5052.257412599149	4
0	15459	5052.643257062685	3
0	15465	5052.857175652429	2
0	15472	5055.492565708423	3
0	15473	5056.790723117111	2
0	15480	5059.472200992888	3
0	15482	5059.775791570253	4
0	15484	5060.241935961662	5
0	15485	5062.345757339341	4
0	15494	5064.837115700594	5
0	15496	5069.682004014095	6
0	15497	5070.009998191326	5
0	15503	5070.282815365448	6
0	15504	5070.387725615937	5
0	15509	5071.001629740546	4
0	15514	5071.323662075941	3
0	15520	5071.711729703597	2
0	15525	5074.021620210073	1
0	15529	5077.765567316338	2
0	15534	5081.724619420393	1
0	15540	5082.877651455548	0
0	15552	5086.216364195152	1
0	15553	5086.72274092263	0
0	15560	5088.137385751259	1
0	15562	5088.183072412736	2
0	15566	5088.94635738561	3
0	15567	5090.701737216053	2
0	15572	5091.174748526036	1
0	15581	5093.545030926208	0
0	15597	5100.889300748614	1
0	15598	5100.960762145705	0
0	15620	5107.44390773668	1
0	15624	5109.492199305423	2
0	15625	5110.096286133064	1
0	15631	5111.177073373173	2
0	15632	5111.57812014388	1
0	15640	5112.579791003557	0
0	15662	5115.12150389873	1
0	15667	5122.904191991184	0
0	15679	5124.777061802432	1
0	15680	5125.531709482931	0
0	15688	5127.410351550722	1
0	15689	5128.590719393924	0
0	15717	5135.719466086061	1
0	15718	5136.268181197197	0
0	15727	5138.519561473616	1
0	15737	5144.380108179755	0
0	15749	5149.096775955063	1
0	15751	5149.235741673247	2
0	15757	5153.280649902901	1
0	15762	5153.403089382261	0
0	15776	5158.121249782854	1
0	15777	5158.20471533897	0
0	15790	5159.251300984261	1
0	15792	5160.781470413048	0
0	15826	5168.123275748567	1
0	15828	5168.987421992391	2
0	15832	5170.448956387745	3
0	15833	5171.952047565742	2
0	15842	5173.528534598986	1
0	15847	5173.622234524195	0
0	15856	5174.534783738479	1
0	15858	5175.737379992993	2
0	15861	5176.884942671413	1
0	15866	5177.008622029112	0
0	15873	5179.757679007138	1
0	15881	5182.434578955962	2
0	15882	5182.853875240159	1
0	15887	5183.472434779519	0
0	15907	5190.574147660296	1
0	15909	5190.975058560087	2
0	15910	5192.248108321288	1
0	15916	5193.554157989874	0
0	15922	5193.766109981847	1
0	15924	5194.030594661135	0
0	15939	5196.229325760176	1
0	15942	5197.444602349853	0
0	15973	5214.619349103703	1
0	15974	5214.782146997633	0
0	15980	5214.850785789272	1
0	15983	5216.047308729627	2
0	15985	5216.610727978229	3
0	15989	5218.00287925508	4
0	15990	5218.398665527598	3
0	15996	5219.695815034081	2
0	16003	5221.218842669542	1
0	16009	5221.944441236224	2
0	16010	5222.427768100839	1
0	16015	5222.635270900027	0
0	16023	5224.181958203969	1
0	16024	5224.272386803217	0
0	16058	5238.467634731929	1
0	16060	5239.1443247042	2
0	16061	5240.515196458678	1
0	16067	5244.947148880503	0
0	16094	5252.210836982856	1
0	16099	5255.213827668689	0
0	16111	5258.479743744085	1
0	16113	5258.712800028085	2
0	16114	5259.624692140995	1
0	16121	5261.744982762753	2
0	16124	5262.544585659926	1
0	16129	5263.64283718211	0
0	16135	5264.357227079109	1
0	16141	5266.066498509208	2
0	16144	5267.232135880127	1
0	16149	5267.546294623823	0
0	16162	5271.105967621591	1
0	16164	5271.495038867283	2
0	16166	5274.682705704807	3
0	16172	5277.355008085712	4
0	16173	5277.896433752035	3
0	16182	5279.781765691727	4
0	16183	5280.182032151569	3
0	16190	5280.976750009595	2
0	16197	5283.082388574836	3
0	16198	5283.579861961529	2
0	16205	5285.203069801735	1
0	16211	5285.296633449422	2
0	16212	5285.327147046251	1
0	16220	5289.552531498169	0
0	16229	5290.666287189185	1
0	16234	5291.099065933645	2
0	16236	5293.85466098984	1
0	16242	5293.858024124943	2
0	16244	5295.326073731167	1
0	16249	5296.022118054793	0
0	16265	5304.596524556672	1
0	16267	5306.093730501691	0
0	16273	5307.635956563844	1
0	16276	5309.264274838109	2
0	16278	5309.404093834713	1
0	16289	5313.735022623662	0
0	16318	5322.671675736554	1
0	16321	5323.969054867819	0
0	16341	5332.781197863688	1
0	16347	5337.07864837738	0
0	16353	5338.214149803776	1
0	16355	5343.310751837458	0
0	16361	5343.871035827678	1
0	16362	5345.305113798218	0
0	16383	5355.077215612628	1
0	16385	5356.263724923266	2
0	16386	5356.302293241799	1
0	16391	5356.447885353971	0
0	16397	5356.465416351724	1
0	16399	5357.175095168037	2
0	16401	5357.17592936521	3
0	16402	5357.415054930533	2
0	16408	5358.015550445318	1
0	16413	5358.626369905521	0
0	16419	5358.920953199812	1
0	16420	5360.205781639214	0
0	16429	5362.715527758963	1
0	16432	5363.43582144706	0
0	16452	5367.902767021371	1
0	16455	5370.478596373862	0
0	16461	5371.391559764944	1
0	16465	5372.282499725637	2
0	16466	5373.350678569602	1
0	16471	5373.972143719779	0
0	16484	5375.062424864706	1
0	16486	5375.613714245249	2
0	16487	5376.062391248721	1
0	16500	5378.430635079367	0
0	16507	5381.065186193285	1
0	16508	5381.077190883506	0
0	16514	5381.147786499218	1
0	16516	5382.57927280931	0
0	16534	5385.746597216361	1
0	16540	5388.010733508226	2
0	16544	5390.704463078993	3
0	16545	5392.252009589589	2
0	16551	5392.416739216574	3
0	16553	5392.682893943175	4
0	16556	5393.67531501479	5
0	16561	5395.314448166271	6
0	16562	5396.793599653662	5
0	16573	5398.630989265509	6
0	16575	5399.476365081758	7
0	16577	5400.013468461063	8
0	16584	5403.731069885491	9
0	16585	5403.837257583193	8
0	16592	5405.47093530579	7
0	16605	5412.259986976832	8
0	16608	5413.003718812973	7
0	16615	5414.084970682169	6
0	16620	5414.779905983075	5
0	16625	5415.870746538177	4
0	16631	5416.583789978228	5
0	16633	5417.000028366787	6
0	16634	5417.125565866797	5
0	16643	5419.489300484938	6
0	16647	5421.91584404607	5
0	16654	5422.453467664658	4
0	16659	5423.441844201897	3
0	16669	5426.806844284972	4
0	16670	5427.161759648902	3
0	16678	5430.664286082024	2
0	16683	5431.679188988553	1
0	16691	5433.411413100046	2
0	16692	5434.293184683343	1
0	16701	5436.493788981183	2
0	16703	5438.875502397286	1
0	16708	5440.583669357658	0
0	16744	5447.808919295381	1
0	16745	5447.940912831348	0
0	16755	5449.458246368793	1
0	16759	5449.905960654355	2
0	16761	5450.765100292267	3
0	16764	5452.072628663169	4
0	16766	5452.087917869952	5
0	16768	5452.296792754596	6
0	16770	5452.833895194429	7
0	16775	5456.007837994672	6
0	16781	5456.148504003667	7
0	16784	5457.147762864904	8
0	16786	5457.980443038321	9
0	16789	5458.820527629111	8
0	16796	5459.685519654945	7
0	16801	5459.865457750596	6
0	16807	5460.327225182549	5
0	16813	5461.177836947279	6
0	16816	5462.198150441835	5
0	16821	5462.353490141485	4
0	16830	5466.290622530401	5
0	16833	5467.520769321256	4
0	16840	5469.737250214141	3
0	16847	5470.461052078496	4
0	16850	5472.730484492951	3
0	16857	5474.409664885666	2
0	16864	5477.235381760749	3
0	16866	5482.416706488108	2
0	16872	5482.97613855299	3
0	16873	5484.05116980957	2
0	16878	5485.381474200111	1
0	16883	5486.496173362293	0
0	16896	5489.260666768611	1
0	16897	5489.953064266488	0
0	16916	5498.78392380494	1
0	16917	5499.234033975081	0
0	16923	5501.055296946504	1
0	16925	5502.460727201253	2
0	16926	5504.473690108892	1
0	16935	5505.663343791037	0
0	16969	5514.637416883859	1
0	16979	5522.149372470251	2
0	16981	5522.171628191018	3
0	16983	5524.546797475469	4
0	16985	5525.836190771624	5
0	16988	5528.638981925664	4
0	16994	5530.361287619893	3
0	17000	5530.455342366952	4
0	17002	5531.84849120888	3
0	17011	5534.674253745507	2
0	17017	5534.956023195633	3
0	17019	5535.26607287303	4
0	17023	5539.98020234667	5
0	17024	5542.102556690565	4
0	17031	5543.307401340976	5
0	17033	5545.250113670425	4
0	17040	5546.021885259211	5
0	17041	5546.250659458539	4
0	17047	5547.075306789552	3
0	17052	5547.357391589151	2
0	17057	5547.785714410092	1
0	17063	5547.954278140364	0
0	17085	5553.593877918202	1
0	17088	5557.787989478567	0
0	17097	5563.034118781642	1
0	17100	5564.866298341457	0
0	17106	5567.55928546014	1
0	17108	5568.779284214536	2
0	17109	5571.822963047406	1
0	17115	5571.865268923061	2
0	17119	5578.349267914426	3
0	17120	5578.409557325245	2
0	17128	5579.842062741113	1
0	17134	5582.25922806799	0
0	17143	5584.946132453173	1
0	17145	5585.136347485289	2
0	17148	5586.681360914	1
0	17154	5586.896916731242	2
0	17155	5587.012586280541	1
0	17160	5587.268717360815	0
0	17196	5599.121710094846	1
0	17198	5600.419892683094	2
0	17202	5604.848109686386	3
0	17203	5606.956735536472	2
0	17213	5611.167912960513	1
0	17218	5611.839948807731	0
0	17224	5612.372171063112	1
0	17227	5612.961728991615	0
0	17233	5613.031005840278	1
0	17237	5616.81729473975	2
0	17240	5617.688015147667	1
0	17249	5621.210670278536	2
0	17254	5623.72828897087	1
0	17263	5625.34318566299	2
0	17264	5625.524133498524	1
0	17270	5628.574057087704	0
0	17284	5631.896027849107	1
0	17287	5632.328251348656	0
0	17296	5634.582492920842	1
0	17300	5639.577966881677	2
0	17303	5640.010548712886	1
0	17311	5640.960412150174	0
0	17317	5641.375346330825	1
0	17320	5644.021647596996	2
0	17322	5644.243665566891	3
0	17325	5645.758072103081	2
0	17331	5647.026918660963	1
0	17338	5647.432905111552	2
0	17339	5647.444126829751	1
0	17345	5648.034735558582	2
0	17347	5653.74392701962	1
0	17356	5654.726282228174	2
0	17358	5656.676601308561	3
0	17360	5658.17452388273	4
0	17362	5659.739380314911	5
0	17363	5661.14943843871	4
0	17369	5663.55505289799	3
0	17379	5666.500478755558	2
0	17386	5668.853699308011	3
0	17387	5669.061820286375	2
0	17392	5669.541891411947	1
0	17398	5670.063056926112	2
0	17399	5671.232653296374	1
0	17405	5672.507507545609	0
0	17416	5673.469481103379	1
0	17421	5674.779381301773	2
0	17426	5676.659835290243	1
0	17432	5678.49162629472	2
0	17433	5678.622117893338	1
0	17439	5679.724552389187	2
0	17441	5680.129772326238	3
0	17444	5680.767575160912	4
0	17446	5685.574715287191	3
0	17452	5685.8999369175	4
0	17455	5688.156074657309	3
0	17465	5689.651244994132	4
0	17468	5696.724693754637	3
0	17475	5697.160873507155	2
0	17481	5699.313821468831	1
0	17486	5700.922918303482	0
0	17492	5702.135239641088	1
0	17493	5702.643187932291	0
0	17534	5709.681153168779	1
0	17538	5710.390856251673	2
0	17540	5710.842810468614	1
0	17546	5712.220894770776	0
0	17559	5713.917169170418	1
0	17563	5716.344618404984	2
0	17572	5726.714371289327	1
0	17579	5727.729390791528	2
0	17581	5727.744131626168	3
0	17582	5728.448066992663	2
0	17593	5732.420682749381	3
0	17594	5732.425718637459	2
0	17600	5732.993413576745	1
0	17606	5734.389457460714	0
0	17625	5737.660256570002	1
0	17626	5738.204747752861	0
0	17681	5753.636322139659	1
0	17682	5755.438454560019	0
0	17694	5757.527015000602	1
0	17696	5757.705363827967	2
0	17699	5759.038680520123	1
0	17708	5760.962872880672	0
0	17714	5761.098435887554	1
0	17716	5762.582394054509	0
0	17730	5767.133365325881	1
0	17732	5767.471140876307	2
0	17733	5768.626061143974	1
0	17738	5769.356946070453	0
0	17747	5770.178324608364	1
0	17752	5771.923626678895	0
0	17761	5772.799285154306	1
[...]
4	80469	26431.467446190876	5437.1485642846
4	80530	26453.965315504763	5447.3365255129
4	80592	26478.733197295067	5453.323580375
4	80598	26482.465793793668	5448.9209537921
4	80603	26483.31263522562	5445.0640955188
4	80610	26484.114216136423	5435.2834642033
4	80621	26488.678515150533	5415.396211052
4	80660	26508.305465570396	5404.3059398493
4	80689	26520.225841163324	5394.8744342504
4	80702	26523.894700602196	5396.2642163609
4	80730	26534.158981873984	5390.950992744
4	80757	26540.773359846034	5397.5427570502
4	80764	26542.319474399054	5390.4798209634
4	80775	26546.475231412749	5392.1061115247
4	80783	26549.270845827659	5394.1973296857
4	80814	26563.858593427234	5392.3562596484
4	80994	26618.20260026736	5435.5359074672
4	81000	26619.99276100235	5436.3053187151
4	81007	26621.023436423917	5434.6344922897
4	81031	26633.844182249743	5435.936157755
4	81038	26634.598742667605	5434.4968837955
4	81055	26640.418253276558	5427.7706625312
4	81093	26651.792933157512	5431.8064597773
4	81098	26654.071488031684	5431.1151126587
4	81105	26658.045925725599	5433.6300829932
4	81120	26662.827438276943	5426.635613084
4	81133	26669.79555423098	5428.0752340538
4	81141	26672.067184638217	5419.1884256523
4	81152	26674.946089215052	5422.0038785533
4	81163	26680.5657612097	5418.9558909126
4	81279	26716.360497549121	5440.1338055238
4	81290	26724.407513777452	5446.9004891764
4	81309	26730.99976592611	5444.1140376118
4	81374	26749.427134337709	5456.7349809347
4	81383	26750.181001721888	5442.1345272829
4	81416	26758.775494687494	5449.7048701431
4	81427	26760.927827225575	5445.7835234882
4	81447	26766.084924641939	5445.4812777479
4	81455	26770.587813221875	5430.9087995653
4	81472	26775.062302270764	5434.1359384593
4	81510	26783.888026402022	5440.4819065588
4	81525	26790.842294973594	5444.2808665763
4	81564	26803.254624646925	5454.7313182892
4	81569	26803.533833506749	5451.1052440049
4	81576	26809.080205063049	5456.6303251845
4	81593	26814.799709226747	5445.260717287
4	81638	26832.279937960221	5454.5320088277
4	81651	26836.478236091632	5458.5934960223
4	81705	26851.720898315782	5434.7697768519
4	81711	26852.050545880083	5429.8954287483
4	81716	26852.36739632504	5425.8093643904
4	81723	26855.831597261795	5417.5139738089
4	81730	26858.442289520527	5404.373610049
4	81747	26872.832676595056	5409.1836907699
4	81888	26918.062004081078	5439.2678303994
4	81905	26924.958958600725	5428.7382579479
4	82080	26982.008330279748	5485.7727855134
4	82106	26986.127336159045	5485.1607727395
4	82118	26988.615482672441	5487.6203711609
4	82123	26989.880752117996	5487.659222706
4	82128	26990.868762325986	5469.6207908006
4	82137	26992.712269766401	5462.6220448216
4	82217	27014.570591688037	5483.4182314391
4	82222	27014.963676190814	5479.5233201439
4	82233	27020.361647937833	5453.2437170663
4	82255	27026.466724740861	5447.755800755
4	82275	27032.145020533015	5439.9872962757
4	82282	27034.237944456546	5429.7844397098
4	82305	27045.630668618045	5438.8537102211
4	82322	27055.374745709403	5441.3804664249
4	82334	27061.628246800818	5446.6919915946
4	82345	27066.081873600693	5426.9212222997
4	82460	27109.362901056146	5464.9664184044
4	82465	27109.612787001975	5460.4937583662
4	82470	27110.528847913532	5460.1048613665
4	82481	27113.74394800093	5461.0932163104
4	82526	27127.861824288641	5474.425616885
4	82602	27151.502622956194	5493.6208795803
4	82613	27155.410801415719	5489.194852751
4	82625	27159.598971352046	5487.3334030894
4	82636	27163.639887502442	5484.9663710442
4	82649	27169.954244046137	5489.6979730454
4	82656	27171.884112605604	5490.6384778262
4	82665	27177.862273564568	5489.9852306216
4	82688	27192.435567693538	5486.8307840209
4	82699	27193.999788549084	5480.1244427389
4	82708	27198.899543933345	5481.6128370726
4	82747	27212.157554310016	5483.5886877025
4	82767	27219.361837649765	5475.9754118379
4	82844	27240.566990033517	5471.8815149479
4	82859	27247.915656637319	5470.8453354482
4	82988	27287.175089091208	5507.6268044982
4	83028	27302.110242165799	5521.4793617443
4	83036	27303.020724150273	5515.7870539048
4	83041	27304.292275632269	5509.8786721756
4	83046	27304.413197591948	5509.6936609293
4	83051	27305.401118168006	5505.8288576032
4	83056	27308.004536841538	5506.2623595249
4	83066	27315.145647490033	5497.313549944
4	83078	27317.166242612454	5499.1963972506
4	83087	27322.694388219734	5500.9854059262
4	83110	27326.373549837415	5484.8563140187
4	83149	27338.536238568073	5490.6952661672
4	83185	27361.040786136257	5508.1341822234
4	83203	27367.416019573391	5507.300517515
4	83227	27372.037822545135	5498.9404635084
4	83232	27372.925530368367	5498.362393986
4	83239	27376.64222542163	5501.7747982658
4	83244	27379.907026880869	5500.1376420347
4	83249	27381.183268893006	5499.8633645992
4	83262	27385.997999317562	5497.0686738603
4	83294	27395.515352610508	5505.2168676264
4	83305	27397.872207032639	5501.7049009726
4	83313	27402.254657064642	5496.7730466365
4	83369	27416.978913970373	5510.1417092907
4	83387	27419.678357763098	5507.3795893963
4	83393	27424.311845670069	5510.3164926401
4	83400	27428.608032752498	5513.0649168667
4	83413	27431.711267519194	5505.8698129856
4	83426	27437.361659953636	5501.576812621
4	83431	27437.880770727864	5488.6435889648
4	83440	27438.836749961842	5486.040878974
4	83490	27461.483694118892	5496.9155692548
4	83498	27462.770866447017	5485.8275034094
4	83504	27465.935293652183	5484.4504936289
4	83509	27468.052138443919	5481.7130343561
4	83526	27475.213100002577	5485.7818856601
4	83606	27501.360568783986	5507.46793505
4	83616	27502.055910340986	5503.1640662449
4	83621	27505.023914289034	5482.7388145163
4	83634	27514.237047056496	5483.7300187878
4	83654	27518.44287097903	5482.4612287404
4	83665	27523.145979735369	5485.6236974494
4	83709	27533.851167255569	5489.2692251702
4	83756	27556.618088311868	5501.7188114907
4	83762	27557.902778071048	5500.1905925004
4	83772	27562.047899512408	5491.4966129773
4	83782	27568.116315061049	5496.6632269841
4	83787	27568.284872551897	5495.6005679028
4	83792	27569.584304208707	5493.5420863694
4	83805	27572.865831697928	5495.6888962402
4	83836	27590.932491308525	5510.9033289764
4	83841	27592.531280543139	5496.7273367163
4	83846	27594.452873510076	5490.2850571812
4	83851	27596.477144490288	5486.4141419397
4	83860	27600.103782874895	5488.2518723871
4	83881	27601.824630364794	5482.6447050443
4	83902	27606.633000759366	5485.0033199935
4	83913	27607.900666752967	5486.1875655774
4	83922	27610.48989134375	5480.4782911526
4	83945	27617.105130837089	5485.319640514
4	83969	27626.188953000806	5487.7254183487
4	83976	27628.760769317912	5477.3423838258
4	84000	27637.534575267961	5485.0582943064
4	84045	27656.7065291118	5497.4475115713
4	84053	27659.133942273681	5495.4785841999
4	84097	27676.431075173008	5503.3414863986
4	84107	27676.834158078177	5496.3647736388
4	84115	27679.882923034535	5493.4222183379
4	84135	27685.444881689442	5493.2010864364
4	84155	27693.121182508273	5500.3655211908
4	84186	27700.68505084343	5506.5237499758
4	84239	27716.337825590579	5518.9085875217
4	84255	27720.092356491458	5508.8913237593
4	84268	27724.753735999491	5503.3081344506
4	84275	27726.009012167238	5492.1680786491
4	84290	27732.637400239451	5493.2521496842
4	84355	27749.084722379908	5499.8871367624
4	84360	27749.226271025124	5495.1255882002
4	84369	27752.269109789915	5497.5427139647
4	84455	27788.195051882239	5531.8086461022
4	84465	27788.844618403052	5531.3447353764
4	84477	27792.185148389903	5534.0361039073
4	84501	27798.430195094308	5539.4402525969
4	84531	27809.474430286484	5547.2071423715
4	84539	27814.285005976158	5545.9671630746
4	84549	27815.560098814446	5539.5575699643
4	84558	27816.301340031202	5538.0325852282
4	84580	27835.459463490816	5553.944983888
4	84605	27841.237744906079	5556.1477119295
4	84614	27842.206897459635	5555.8719220929
4	84621	27843.15387920078	5555.2738622967
4	84641	27845.883827623506	5538.7307941137
4	84648	27849.543523838232	5533.6243609803
4	84655	27854.464278930303	5537.3408611038
4	84666	27857.805418167091	5533.8507664211
4	84678	27860.16462329879	5531.6129139473
4	84723	27875.596707377208	5546.7615601224
4	84746	27885.991302227267	5552.172095249
4	84759	27889.211803734906	5548.1376398608
4	84782	27902.655429633203	5555.7914114857
4	84875	27926.990551476003	5570.0023716958
4	84988	27969.076872296775	5609.0670660512
4	84999	27971.029910821098	5590.5579719695
4	85013	27976.812016353361	5592.4152406973
4	85028	27984.579488737778	5592.1587215992
4	85043	27988.94661319417	5594.8365331917
4	85050	27990.219361550934	5592.2964127185
4	85055	27990.793686097864	5592.5037975382
4	85067	27998.930865066216	5590.3560247833
4	85081	28003.291339543362	5589.266863889
4	85093	28007.348991340164	5584.7634241591
4	85098	28007.958672513755	5583.1314998271
4	85116	28022.690548854582	5582.7402336676
4	85150	28026.606531100656	5573.4667895336
4	85161	28027.953922074367	5555.0095455548
4	85242	28052.931165244575	5575.4203122103
4	85249	28054.439229748765	5576.6488719976
4	85280	28060.051432830571	5581.6972650226
4	85307	28068.063816490972	5583.6605254011
4	85317	28070.145998140257	5576.9492479188
4	85331	28074.065096177637	5561.145251482
4	85343	28080.310133961849	5557.1008468817
4	85350	28081.260266906697	5553.2286846961
4	85363	28086.460557711306	5555.8583588747
4	85374	28089.061648832446	5551.7820833055
4	85383	28094.77611217692	5552.0347207089
4	85434	28106.477737563786	5560.1259403254
4	85443	28109.355085244447	5561.8168425294
4	85465	28115.655860545999	5566.3476004467
4	85486	28121.891802782284	5563.2397188307
4	85541	28146.733579906224	5573.5853060676
4	85900	28263.286796472975	5688.9495015779
4	85905	28263.966327829201	5683.8257442284
4	85913	28267.947069971964	5680.721766288
4	85929	28272.817830032764	5676.32882686
4	85968	28282.17315095739	5676.934309422
4	85973	28282.714054847619	5676.8964636957
4	85982	28285.605066066931	5678.0173421616
4	85994	28290.050344597362	5672.028267326
4	86043	28301.423540515255	5681.3541083228
4	86049	28302.311518987392	5664.7089248054
4	86059	28305.935201023333	5667.267872685
4	86093	28316.473305235677	5677.6247634564
4	86098	28318.616751099993	5679.5201622313
4	86105	28325.705228534557	5673.313625678
4	86118	28328.853996592307	5675.5242873525
4	86129	28332.891653106359	5671.9263682316
4	86148	28336.545335829397	5674.9830088284
4	86155	28338.939432595999	5672.3850151758
4	86164	28343.405516848386	5676.5355044254
4	86170	28345.511114246196	5672.0161110217
4	86175	28346.056038396438	5671.8641936473
4	86184	28350.085201230127	5672.8163791395
4	86253	28371.406523938702	5692.7877378873
4	86262	28372.03806527182	5683.3719933194
4	86297	28377.898667351948	5687.6341674028
4	86304	28378.922419030266	5680.1764518337
4	86330	28383.353508359759	5683.8046200162
4	86346	28390.337678646531	5681.8999215779
4	86368	28394.969338021671	5684.3049115909
4	86378	28396.585320042974	5680.9238086989
4	86392	28401.24730288561	5675.2085254345
4	86444	28413.749724965358	5686.3186562998
4	86449	28413.889137787431	5686.4396961087
4	86460	28418.18203672261	5685.9545394894
4	86469	28421.54815968406	5682.2829073649
4	86484	28425.879059854355	5683.4731884283
4	86491	28428.985893672361	5685.7236852294
4	86542	28440.959029233921	5695.7799294023
4	86720	28505.989692416931	5760.3420154995
4	86726	28507.428723584655	5749.4395822052
4	86731	28507.657790556877	5738.6644063315
4	86742	28511.345811147142	5738.8916980586
4	86765	28515.214000749776	5739.751795559
4	86772	28527.743889298532	5740.622182816
4	86783	28530.730411093639	5742.5682425362
4	86788	28531.396345952165	5731.6914450175
4	86793	28532.885358789364	5727.7443154725
4	86802	28538.887531690412	5731.1633508507
4	86821	28542.633083001422	5724.757048106
4	86839	28549.117329991151	5720.0848328542
4	86859	28554.90287036297	5724.7834586274
4	86873	28557.076584594201	5722.0175522717
4	86878	28557.391492138164	5720.7778370811
4	86893	28571.745304222967	5733.5212263064
4	86909	28574.756532672438	5727.8654771536
4	86914	28574.945992040169	5727.5599243079
4	86919	28576.280203326848	5715.9740288817
4	86924	28576.539056250317	5704.3267954242
4	86930	28579.872604698412	5680.1618038807
4	86937	28588.179406584635	5687.8024150671
4	86989	28602.278872177806	5697.4095507862
4	87023	28612.992308096675	5708.0134882917
4	87042	28619.310826872076	5711.0766980271
4	87047	28621.111041902391	5705.20531797
4	87056	28628.555477155129	5712.5098632229
4	87070	28629.863588446768	5710.4393251272
4	87078	28633.131244294958	5707.3749481639
4	87089	28637.77021981438	5710.125272861
4	87126	28648.078646330035	5714.6803174092
4	87146	28663.895077731747	5728.9164239985
4	87175	28671.355775422127	5733.4995278914
4	87180	28675.163988728219	5715.1781135476
4	87189	28680.901333630709	5719.3824261532
4	87205	28684.400821675166	5707.7094633542
4	87215	28685.132315227446	5694.0399732091
4	87229	28689.806495318081	5691.4680555825
4	87235	28692.646571450522	5687.8311758624
4	87252	28699.501592974842	5682.7507702107
4	87272	28705.783847695165	5676.6338794219
4	87281	28709.935177445548	5676.9487822719
4	87318	28719.594326923209	5685.8708187369
4	87337	28725.901385493865	5677.6842303647
4	87346	28731.769284937335	5682.8219043382
4	87360	28733.147124296849	5683.9801758894
4	87382	28739.329253094197	5683.3577305568
4	87405	28744.157962589764	5687.3170586387
4	87556	28799.982145258967	5737.5123998389
4	87577	28803.376894569315	5739.7450379228
4	87586	28806.19614478688	5741.6404249101
4	87603	28810.789938141538	5741.759482374
4	87610	28812.105058206014	5731.5611862086
4	87668	28822.459827158784	5733.636698824
4	87675	28826.628924422519	5715.6659175877
4	87683	28827.333279933122	5710.2317383446
4	87700	28833.614757502668	5704.455253859
4	87728	28845.636212014037	5713.1324262297
4	87761	28852.054260170602	5709.0263020511
4	87793	28866.653476524159	5722.7815760464
4	87845	28880.820666685634	5736.071505701
4	87853	28887.891077380183	5737.2071409463
4	87886	28897.652951034638	5739.0457472638
4	87891	28900.40829902999	5724.1486061192
4	87902	28906.459433285758	5726.149382624
4	87940	28921.0216685819	5737.8095973959
4	88010	28942.225706690134	5757.2619156401
4	88017	28942.99586369019	5756.6389180415
4	88029	28946.843815928985	5759.768615065
4	88034	28947.0227851308	5747.9293833275
4	88050	28957.549434191614	5757.8420127106
4	88214	29008.88204978923	5808.132754581
4	88225	29013.115084817631	5808.5884916385
4	88230	29013.519533422314	5806.8400733081
4	88238	29017.700046552133	5793.1518831623
4	88247	29019.71374808781	5789.6133100207
4	88276	29027.943703914648	5796.8356825161
4	88289	29033.454979154977	5787.843797539
4	88324	29047.285360646579	5795.5317597271
4	88332	29049.894477141193	5784.7391250243
4	88339	29050.94468906589	5779.6573964553
4	88361	29055.053430985144	5783.6788174322
4	88366	29055.961012640712	5782.2473367669
4	88377	29064.637221725516	5790.6587227159
4	88417	29072.960266729344	5798.8427322511
4	88435	29075.965342209534	5790.4890061308
4	88440	29077.292021337509	5784.4664044766
4	88447	29079.156272290451	5783.2234789894
4	88461	29084.176364497127	5787.4542905489
4	88472	29086.532560950005	5785.1292471099
4	88479	29090.267827722936	5787.2306485713
4	88492	29094.259155807311	5783.2415931195
4	88497	29095.489722365966	5782.852145231
4	88504	29098.418990160743	5783.8653183852
4	88513	29102.2496328566	5775.9245085949
4	88530	29107.712225709969	5779.7025205693
4	88562	29115.423006061814	5786.3500189434
4	88574	29118.198642427816	5787.843076309
4	88581	29122.628704048926	5780.827860808
4	88645	29137.760273898833	5786.4236052431
4	88653	29138.906231305226	5778.4352124497
4	88666	29140.708656764064	5773.2879643076
4	88700	29149.49049501179	5770.6493147308
4	88745	29163.211145865305	5783.8454487742
4	88813	29180.855295053839	5797.094109474
4	88820	29183.769238571589	5798.0987937709
4	88971	29219.361636092229	5815.0288366942
4	88979	29222.17557315768	5802.8227037764
4	89004	29229.572448543086	5801.4295964688
4	89009	29229.575609977667	5798.9023060488
4	89016	29234.077046065664	5802.3208156782
4	89026	29237.308849772232	5801.877913322
4	89031	29237.450553536394	5793.3410293614
4	89037	29238.094827878415	5782.7396545319
4	89042	29239.254676201087	5782.5939648168
4	89053	29247.689539182363	5788.696613969
4	89140	29274.734584055433	5814.0851319849
4	89145	29275.129028355973	5813.6481742471
4	89155	29279.703501045228	5804.4383792313
4	89167	29281.320998206244	5795.3484337098
4	89174	29282.830036573426	5795.5946721624
4	89190	29286.613211014164	5799.0758881299
4	89218	29299.466281884547	5799.38221679
4	89223	29300.17218053535	5784.9589488531
4	89228	29304.397983853191	5789.152592496
4	89239	29307.409984018771	5786.6093257072
4	89274	29316.571885889315	5785.4280646337
4	89282	29321.018840312317	5781.2342718261
4	89293	29322.775951925816	5780.1390203494
4	89302	29325.220086195006	5781.742322516
4	89331	29331.032637672154	5784.5263983071
4	89432	29364.883544195391	5817.175328268
4	89437	29365.133801620154	5801.9207566468
4	89442	29366.256773973712	5798.9749267229
4	89454	29371.215794301021	5802.3497409735
4	89465	29375.28476697986	5795.0850420851
4	89470	29376.075397999874	5795.8514358875
4	89475	29377.353576752721	5789.8485752119
4	89482	29379.688200567454	5777.5089971051
4	89497	29384.439668223378	5763.3750644977
4	89512	29390.805575031158	5764.1371043904
4	89533	29393.491830296394	5765.8980521442
4	89548	29399.341139485598	5766.5581007543
4	89661	29431.788212384302	5792.4326196625
4	89668	29439.947198540163	5770.087044973
4	89685	29445.138826746212	5760.7182739519
4	89705	29452.575692027259	5756.1033108332
4	89714	29455.128277127122	5739.478285111
4	89730	29457.910770558156	5732.3174449804
4	89746	29459.521489741402	5733.3868324868
4	89753	29461.790904672209	5730.5026653358
4	89777	29473.744862929323	5732.0324452294
4	89788	29481.411815117997	5739.0475157209
4	89793	29482.279614705228	5738.7072242541
4	89800	29485.850243905852	5741.6145178669
4	89821	29496.994309288849	5752.7044806153
4	89848	29504.347967116882	5752.319385025
4	89866	29512.979118102375	5759.5031141793
4	89918	29527.688909867399	5773.7635184659
4	89940	29543.366246781614	5788.1650911744
4	89972	29548.500871985054	5787.4223868902
4	89984	29551.97470609545	5790.5620736491
4	89995	29553.713335646281	5772.2509427601
4	90002	29557.116811359515	5774.2705868132
4	90019	29567.158353375202	5779.9557135978
4	90082	29595.00486236278	5801.9383847537
4	90087	29595.273041706326	5794.6437964547
4	90094	29596.888562012168	5794.5563133431
4	90105	29603.243105578393	5793.0807329101
4	90214	29641.564860812566	5825.620721789
4	90258	29651.039889589145	5834.3151884567
4	90264	29653.461493971248	5833.0669340835
4	90270	29656.403650133106	5828.6566048488
4	90275	29657.162289244493	5827.9920045453
4	90280	29660.737825049772	5810.6466871298
4	90292	29663.057416079136	5809.7269780418
4	90310	29666.34593418318	5789.9294145466
4	90319	29670.9295484571	5788.8051857806
4	90324	29672.805643912561	5789.4790823056
4	90334	29684.421857577801	5800.6070682294
4	90345	29686.579608579976	5792.9321137163
4	90353	29688.509108076303	5794.290643241
4	90358	29689.18122552747	5787.7563806946
4	90371	29695.59640733155	5787.2505432918
4	90514	29751.048970334101	5842.2205917131
4	90529	29753.798873825542	5843.5497249834
4	90540	29759.279968316873	5846.003377774
4	90553	29762.068223265791	5847.7976219276
4	90565	29769.356784359892	5854.4614871136
4	90590	29773.79534019407	5856.6275926841
4	90609	29783.19606003544	5860.0271472965
4	90618	29785.547922346758	5859.114285715
4	90639	29792.448704605098	5864.0932585329
4	90646	29793.244316677077	5860.2912060751
4	90658	29796.383720193844	5846.3104261199
4	90670	29800.011241356405	5845.2659981587
4	90675	29802.575652905827	5846.501425511
4	90703	29813.742507718445	5845.7234745068
4	91140	29948.459572000689	5979.9343054194
4	91149	29949.421510267129	5979.9483408641
4	91163	29952.024241794952	5981.357955492
4	91169	29952.347851640538	5976.8345455205
4	91182	29963.199752096723	5986.7622610601
4	91237	29983.056644645657	6003.5189593682
4	91272	29992.474065554899	6008.3455788998
4	91282	29995.045143936527	6003.3401570024
4	91297	29998.886810913612	6003.8482360441

