version 2
run Third-n4-4-20191016-14:53:47-4628
attr configname Third-n4
attr datetime 20191016-14:53:47
attr experiment Third-n4
attr inifile omnetpp.ini
attr iterationvars ""
attr iterationvarsf ""
attr measurement ""
attr network org.omnetpp.queueing.Pizza
attr processid 4628
attr repetition 4
attr replication ""
attr resultdir results
attr runnumber 4
attr seedset 4
param **.PS.maxInventoriedPS 4
param **.U1.interArrivalTime exponential(4s)
param **.U2.interArrivalTime exponential(6s)
param **.PS.serviceTimeForInventoryU1 exponential(1.4s)
param **.PS.serviceTimeForInventoryU2 exponential(1.4s)
param **.PS.serviceTimeDirectU1 exponential(1.8s)
param **.PS.serviceTimeDirectU2 exponential(1.8s)
param **.PS.probabilityProducing 0.8
param **.CS.serviceTimeU1 exponential(2.3s)
param **.CS.serviceTimeU2 exponential(2.3s)

vector 0 Pizza.EntryQueueU1 queueLength:vector ETV
attr interpolationmode sample-hold
attr title "queue length, vector"
vector 1 Pizza.CS queueLength:vector ETV
attr interpolationmode sample-hold
attr title "queue length, vector"
vector 2 Pizza.EntryQueueU2 queueLength:vector ETV
attr interpolationmode sample-hold
attr title "queue length, vector"
vector 3 Pizza.sink lifeTime:vector ETV
attr interpolationmode none
attr title "lifetime of arrived jobs, vector"
attr unit s
vector 4 Pizza.sink lifeTimeU2:vector ETV
attr interpolationmode none
attr title "lifetime of arrived jobs, vector"
attr unit s
0	0	0	0
0	18	16.81811321791	1
0	22	20.827284776736	2
0	24	24.225146197844	3
0	25	24.754643265525	2
0	30	26.885994149897	1
0	38	28.978183866027	0
0	46	32.176046103925	1
0	51	36.196772991033	0
0	92	52.572172718177	1
0	93	52.711594837799	0
0	100	53.521044019906	1
0	101	55.04617530432	0
0	107	55.574328576429	1
0	108	56.128539887651	0
0	123	58.38581919149	1
0	124	58.593748342995	0
0	146	63.027775258916	1
0	150	63.877808522061	2
0	152	64.192710450733	3
0	153	64.959027245439	2
0	159	64.998460813881	3
0	161	67.25974345192	4
0	164	68.777023925815	5
0	166	70.933761816741	6
0	168	71.718407715312	5
0	175	72.643541539992	4
0	184	75.72526890644	5
0	185	76.93809354445	4
0	192	77.129819345503	3
0	197	77.69371557311	2
0	203	79.347543753348	3
0	204	79.356749045462	2
0	210	79.511495976014	1
0	217	79.770676959964	2
0	218	81.572706435884	1
0	224	81.578705368097	2
0	225	81.622974783315	1
0	231	81.777711259395	2
0	233	82.466484983053	1
0	238	82.783974823964	0
0	246	86.386057395095	1
0	249	89.946246490688	0
0	261	91.066199822027	1
0	266	92.791087035518	2
0	270	96.349288208568	1
0	276	97.04469787504	0
0	293	101.470201139823	1
0	295	101.817595575906	2
0	296	107.247684230989	1
0	302	109.858953767904	0
0	323	112.884626946408	1
0	325	114.420521223014	0
0	332	118.516487173934	1
0	334	120.592996219815	0
0	353	129.946345517819	1
0	358	132.235449767291	0
0	374	134.288763768146	1
0	375	134.879555704765	0
0	388	137.092682733789	1
0	393	141.23224165306	0
0	399	142.304459841404	1
0	403	143.663376219439	2
0	408	147.55083552709	1
0	413	149.397270592378	0
0	425	150.323963471429	1
0	429	159.189143154665	2
0	430	160.52484958456	1
0	442	164.652087633346	0
0	448	164.796488408139	1
0	450	168.216075995623	0
0	458	169.45833458288	1
0	459	169.568383696189	0
0	478	176.800329080115	1
0	481	178.117193587123	2
0	483	178.480901483349	3
0	486	183.684726196355	4
0	487	184.536882452955	3
0	496	188.366688681338	4
0	497	188.997086071131	3
0	503	190.444900158313	4
0	505	190.511384096858	5
0	507	191.170343095745	6
0	509	192.674162262689	7
0	512	193.676123230809	8
0	514	196.171095366444	7
0	519	196.420579060845	6
0	526	197.50283948275	5
0	535	202.294245466553	6
0	537	202.663191588747	7
0	540	204.208711591892	6
0	549	206.577486704686	7
0	551	209.098420155245	8
0	552	210.438808915743	7
0	558	213.602109916423	6
0	567	215.799651092786	5
0	573	216.066206309837	6
0	575	217.139701417113	7
0	581	220.796941553914	6
0	587	220.92081866894	5
0	592	221.646115998298	4
0	598	222.795271991599	3
0	604	223.461540651075	2
0	612	225.022935878715	3
0	613	225.366338059752	2
0	618	227.184608545095	1
0	626	227.887676275638	2
0	628	231.071100003292	3
0	630	231.450947353865	4
0	631	234.277551335007	3
0	636	234.803210222952	2
0	642	235.114085689692	3
0	643	235.600223905672	2
0	649	237.974889010238	3
0	651	238.7710034369	4
0	652	238.877672307326	3
0	657	239.121408068793	2
0	666	247.734943838506	1
0	673	251.177421070282	0
0	679	253.674054114937	1
0	683	255.82305825334	0
0	697	257.117781599536	1
0	699	257.293165050825	2
0	700	257.34981754718	1
0	710	258.539369053455	0
0	717	259.014642273982	1
0	718	261.689776482745	0
0	756	271.133336930065	1
0	757	271.29424261631	0
0	772	274.740405132481	1
0	774	275.779603735341	2
0	776	277.86820055349	3
0	781	280.088827807397	4
0	784	281.275659101255	3
0	793	283.719175456816	4
0	794	283.792759618828	3
0	799	283.955557231727	2
0	804	283.96448158987	1
0	810	284.005028140882	2
0	811	284.61108694565	1
0	817	284.988201345298	2
0	821	286.591946470391	1
0	826	288.144864722007	0
0	840	293.51625031614	1
0	841	295.415863331667	0
0	878	308.268562627853	1
0	879	308.816572040217	0
0	920	324.005133522453	1
0	922	324.496646441583	2
0	923	325.3430712029	1
0	929	325.45838039339	2
0	930	327.006930749351	1
0	936	328.90978294453	0
0	957	332.895852654468	1
0	962	336.879614048076	0
0	969	338.366515807622	1
0	974	340.627334797822	2
0	976	343.661683650169	1
0	982	346.077169435405	2
0	985	346.78413835632	3
0	986	346.809745573275	2
0	992	348.019721401862	1
0	999	352.500962772843	0
0	1021	354.255395368104	1
0	1025	356.046578048309	0
0	1043	360.612227182008	1
0	1045	361.163346491573	2
0	1047	361.470794834328	3
0	1048	361.523590881388	2
0	1054	363.666662974344	1
0	1061	366.883517355347	0
0	1076	371.483890498895	1
0	1077	372.262952889804	0
0	1090	374.276967764476	1
0	1093	375.743552669969	2
0	1094	377.063658975505	1
0	1100	380.80592572137	0
0	1107	381.99576171707	1
0	1108	382.363081805016	0
0	1117	385.389565849054	1
0	1121	386.753805944533	0
0	1129	387.516856487359	1
0	1131	388.998161435279	2
0	1134	391.488883541273	1
0	1141	391.581153323186	0
0	1155	397.513940403481	1
0	1158	397.680152462951	0
0	1164	399.078538748083	1
0	1169	402.345909177431	2
0	1171	405.159784382045	1
0	1176	407.310827084392	0
0	1183	409.869465900234	1
0	1185	413.824132661579	0
0	1197	416.056219345626	1
0	1199	416.137281533528	2
0	1201	418.714153995375	3
0	1209	422.543875814062	4
0	1212	423.239695655325	3
0	1217	423.861062923674	2
0	1224	425.80993787601	1
0	1230	426.416158958281	0
0	1237	426.857447152507	1
0	1242	429.041815588105	0
0	1257	434.193752813664	1
0	1258	437.3647694811	0
0	1278	439.543490385447	1
0	1280	439.732586604027	2
0	1282	440.078408126188	3
0	1286	440.485876502782	4
0	1288	440.669761996678	5
0	1291	441.727574144185	6
0	1293	443.740227284096	7
0	1295	444.402494548245	6
0	1300	445.116590025353	5
0	1306	447.650776843272	4
0	1312	447.968394619136	3
0	1318	449.245950016911	4
0	1322	451.351853848296	3
0	1328	452.191173760248	4
0	1329	452.772067392093	3
0	1335	453.217349947815	2
0	1340	453.883176934947	1
0	1346	454.698038850344	0
0	1359	458.166559631549	1
0	1366	464.457472422775	0
0	1390	471.372890694418	1
0	1394	472.799943864426	2
0	1395	473.422612628153	1
0	1400	474.486112582733	0
0	1406	474.740447932529	1
0	1409	477.289983045796	0
0	1428	484.093616361099	1
0	1432	486.083793719258	2
0	1433	488.116398125602	1
0	1441	491.900292521721	0
0	1450	496.716224132136	1
0	1452	498.070145449758	0
0	1468	503.649703015744	1
0	1470	507.952010410719	2
0	1472	510.509329511619	3
0	1473	514.242723017096	2
0	1479	515.96186175964	1
0	1484	516.67687784372	0
0	1490	516.935623855559	1
0	1491	517.330262654932	0
0	1500	523.070858727354	1
0	1501	523.325479131876	0
0	1533	530.411492572377	1
0	1534	531.370409788205	0
0	1548	534.905745103473	1
0	1550	536.06146954981	2
0	1556	537.177042418383	3
0	1557	539.407216619598	2
0	1563	539.514641580602	3
0	1566	542.411851608528	2
0	1574	546.55187168141	1
0	1579	549.923545020889	0
0	1585	550.365122218659	1
0	1588	554.086977050014	0
0	1603	557.543662651306	1
0	1604	558.473409808427	0
0	1615	558.892105331902	1
0	1616	560.211376646651	0
0	1650	568.883652045256	1
0	1654	569.340858079003	2
0	1664	576.691326629037	1
0	1674	580.46360308482	2
0	1677	582.490468111778	1
0	1684	583.946137528271	2
0	1688	589.79473236048	3
0	1690	590.270221534328	4
0	1693	592.463421979711	3
0	1698	592.512643870736	2
0	1706	595.483116132598	3
0	1707	597.075662996833	2
0	1714	598.794208953474	3
0	1718	601.16009143105	4
0	1720	602.722651289491	5
0	1722	602.989870805484	6
0	1724	603.111296306868	7
0	1726	603.275408731209	8
0	1728	603.679312171609	9
0	1730	604.002240348064	10
0	1731	605.642662448659	9
0	1737	606.367012259655	10
0	1738	608.661415663219	9
0	1743	609.071411131042	8
0	1749	609.368724827432	7
0	1755	609.422064381139	8
0	1756	610.176203265942	7
0	1762	610.429894673784	8
0	1764	610.520551389876	9
0	1765	610.56785080151	8
0	1770	614.150289736493	7
0	1782	624.975122496059	8
0	1783	625.057853317188	7
0	1790	625.957679744081	8
0	1794	626.299964534155	9
0	1796	626.388709927269	10
0	1799	628.203561976518	9
0	1804	628.475138509146	8
0	1809	628.68272896848	7
0	1815	630.660875066512	6
0	1822	631.411088502548	5
0	1831	632.430740874656	4
0	1835	632.78366008961	5
0	1839	633.106033156304	6
0	1842	633.394575733719	7
0	1844	633.452867323903	8
0	1846	635.873397729168	7
0	1854	636.605543389001	8
0	1855	637.668689905211	7
0	1862	638.743874655712	8
0	1863	638.936697105607	7
0	1871	639.375694259275	8
0	1876	644.417000015043	7
0	1883	648.825190926913	6
0	1888	649.133592547314	5
0	1893	649.191979879834	4
0	1904	651.513632766541	3
0	1910	652.056467453484	2
0	1916	654.827730626463	1
0	1922	656.546715231617	0
0	1941	659.512650908716	1
0	1943	662.310670853473	2
0	1944	663.284922426209	1
0	1950	663.360153781984	2
0	1952	664.780979540955	1
0	1957	666.274900388127	0
0	1978	667.824577721018	1
0	1980	670.022993761275	0
0	1995	676.265892256643	1
0	2000	677.901971191861	2
0	2001	678.025401073645	1
0	2007	679.741736812026	0
0	2023	683.801173999219	1
0	2026	685.121521230401	0
0	2043	691.687883250638	1
0	2045	691.887606060559	2
0	2047	692.428617459992	3
0	2048	693.039309437452	2
0	2056	694.690781662772	1
0	2063	696.22689524201	2
0	2065	696.492166419015	3
0	2066	698.208895951934	2
0	2071	698.659353575585	1
0	2077	699.958799409623	0
0	2084	700.174603310515	1
0	2093	706.452695829654	2
0	2095	707.573660491101	3
0	2096	708.650842557652	2
0	2102	710.887689478615	1
0	2109	717.964321989128	2
0	2111	719.255687605336	3
0	2114	720.494270739651	2
0	2120	721.348182689578	1
0	2126	723.193401006308	0
0	2132	723.840787392829	1
0	2134	724.22345113276	2
0	2136	725.167050678491	3
0	2138	725.904096808	2
0	2143	726.294372237812	1
0	2155	729.414799718618	0
0	2165	731.679304978943	1
0	2170	737.374671779684	2
0	2171	739.717751208345	1
0	2177	740.015438722496	2
0	2180	741.34512473646	3
0	2184	742.442696555286	4
0	2186	742.950489070196	5
0	2188	744.764676089936	6
0	2190	746.383269246898	7
0	2191	746.90286319081	6
0	2198	748.133573915222	5
0	2204	748.152918429064	6
0	2208	749.758542427866	7
0	2212	751.53807512282	8
0	2213	753.109611370553	7
0	2219	753.28239248717	6
0	2225	753.84850349868	7
0	2229	757.676146206241	8
0	2231	760.739612847472	7
0	2239	765.041627675005	6
0	2245	765.574776311431	5
0	2251	766.780813234464	4
0	2258	768.529261879102	3
0	2263	770.653138582439	2
0	2271	771.885560618639	1
0	2278	773.584737836846	2
0	2283	775.17693611885	3
0	2287	780.488750119825	2
0	2293	781.053643527521	3
0	2299	782.115839336954	2
0	2304	782.554251592448	1
0	2320	786.108326752213	2
0	2322	786.528351667873	3
0	2325	787.522301065904	2
0	2334	794.498832027478	1
0	2339	794.546641795497	0
0	2345	795.097682366164	1
0	2350	797.309606886919	0
0	2382	807.998752231164	1
0	2383	809.785967684008	0
0	2423	814.777756359523	1
0	2425	814.880913378207	2
0	2429	820.011961140552	3
0	2430	820.391827359845	2
0	2436	820.515438944092	3
0	2437	820.887910507675	2
0	2442	821.833450772004	1
0	2450	822.281810153364	2
0	2452	825.181166490962	1
0	2457	825.364586345314	0
0	2463	825.461356469377	1
0	2465	827.133928390144	0
0	2475	829.088325597746	1
0	2482	831.880966094742	0
0	2492	833.270791309568	1
0	2493	834.717917797318	0
0	2502	836.137470044749	1
0	2508	842.409001563832	0
0	2534	849.733629507511	1
0	2535	850.49491115588	0
0	2556	854.140363759595	1
0	2558	854.310643087477	2
0	2560	858.621533970145	3
0	2563	863.418746372355	2
0	2569	863.721365317678	3
0	2571	866.457687377992	2
0	2577	866.677444590031	1
0	2582	866.904093717953	0
0	2590	867.616349130983	1
0	2591	867.927031511139	0
0	2600	868.039184958234	1
0	2603	870.763810196058	0
0	2609	871.050479312952	1
0	2611	871.473855708301	0
0	2624	875.236922796363	1
0	2628	875.531661650722	2
0	2630	875.616449606495	3
0	2637	880.288081228385	2
0	2643	881.273065296614	3
0	2645	882.144884151801	4
0	2647	883.20833545044	5
0	2649	883.763738941862	4
0	2655	884.48577451039	3
0	2660	885.075227585008	2
0	2669	885.725154836577	3
0	2672	886.505727732722	4
0	2673	886.737824153292	3
0	2678	887.902177548869	2
0	2684	888.352216929526	3
0	2687	890.052747780359	2
0	2692	890.932333254861	1
0	2699	892.340967867517	2
0	2702	895.051714181371	1
0	2708	896.3974917397	2
0	2713	898.24854273998	1
0	2718	898.477116477942	0
0	2722	898.56180272668	1
0	2727	904.614329469567	0
0	2731	906.433864788058	1
0	2735	908.183483524534	2
0	2736	909.831196549947	1
0	2747	912.466754389559	0
0	2764	914.757405613862	1
0	2766	915.06210284458	2
0	2767	918.239409751721	1
0	2772	918.348046163738	0
0	2794	922.951529011495	1
0	2796	923.720465755918	2
0	2802	928.579699461113	3
0	2803	929.640507651728	2
0	2810	932.636645157287	3
0	2813	933.76806591703	2
0	2818	935.560589778409	1
0	2824	936.236508809487	0
0	2830	936.73205304475	1
0	2831	936.789414964862	0
0	2838	936.880159087602	1
0	2843	938.925097247464	2
0	2845	941.122599852722	3
0	2846	942.235215991731	2
0	2851	942.310553682339	1
0	2856	942.466156579962	0
0	2863	945.707535851082	1
0	2866	945.942073127945	2
0	2868	947.007015115876	3
0	2869	950.696547969385	2
0	2876	951.04631730923	1
0	2891	953.06157764013	2
0	2893	956.057426921012	3
0	2895	956.858176672325	4
0	2896	957.848434550773	3
0	2904	958.812514297191	2
0	2911	960.522950203471	3
0	2915	961.828703313114	4
0	2918	965.439997146009	3
0	2924	965.726934400423	2
0	2929	965.860070457443	1
0	2934	966.631359164132	0
0	2945	969.792610459865	1
0	2947	969.884628208808	2
0	2950	972.169927986613	1
0	2957	972.575714266573	2
0	2958	973.118332017506	1
0	2963	973.197182948357	0
0	2972	977.165582287804	1
0	2973	980.820837161924	0
0	2987	984.618146693812	1
0	2991	987.657040138376	0
0	3043	1002.637458586428	1
0	3045	1005.03209912606	2
0	3047	1006.625138164894	3
0	3049	1007.618657911402	4
0	3051	1008.223518021705	5
0	3052	1008.447367248029	4
0	3059	1009.364588867757	5
0	3060	1010.336213193827	4
0	3066	1012.738836215735	3
0	3073	1013.816826503957	2
0	3080	1015.097256532515	3
0	3082	1015.697852474083	4
0	3083	1016.431253352043	3
0	3090	1018.315876520065	4
0	3094	1022.33303044869	5
0	3096	1022.823694425723	4
0	3102	1024.657028409322	3
0	3108	1025.670221302014	2
0	3115	1028.500043965187	3
0	3122	1029.405564549874	4
0	3123	1029.412779315414	3
0	3129	1029.689689578283	4
0	3130	1029.855582838461	3
0	3135	1029.935298659271	2
0	3148	1035.581297072643	1
0	3153	1036.272264174671	0
0	3177	1041.463395756048	1
0	3179	1042.283295631376	2
0	3180	1042.305699759185	1
0	3189	1043.568103264326	2
0	3190	1044.905598222921	1
0	3195	1045.940353478502	0
0	3201	1047.735061146393	1
0	3202	1048.479490779675	0
0	3217	1053.294328434261	1
0	3220	1054.136294393223	2
0	3222	1057.450804041046	3
0	3225	1061.187699073753	2
0	3230	1063.584333887526	1
0	3240	1067.410412726812	0
0	3294	1090.809218443297	1
0	3298	1092.741405341146	0
0	3306	1093.981283217386	1
0	3310	1099.169907930929	0
0	3316	1100.05463499966	1
0	3318	1100.355724649669	0
0	3330	1104.425472725903	1
0	3335	1105.535859913504	0
0	3347	1110.32075907573	1
0	3349	1110.509724033157	2
0	3352	1115.050017502389	1
0	3361	1117.520238216496	2
0	3362	1117.633283685844	1
0	3368	1118.547027687044	2
0	3369	1119.616062238321	1
0	3376	1122.976030550048	0
0	3386	1127.582671377724	1
0	3388	1128.765586212182	2
0	3391	1130.918925506901	3
0	3393	1131.044772272769	4
0	3396	1132.368435436209	5
0	3399	1132.711620655495	4
0	3406	1132.93350354031	5
0	3411	1134.653256194126	6
0	3416	1137.223500008052	7
0	3417	1137.881517683347	6
0	3424	1140.002248842897	7
0	3426	1141.600492294633	8
0	3427	1143.244354152397	7
0	3432	1144.393315073872	6
0	3437	1147.387006357846	5
0	3442	1147.796251879399	4
0	3448	1148.038283177457	5
0	3450	1149.141609056091	6
0	3451	1149.218673574383	5
0	3460	1153.809329102525	4
0	3468	1157.848196398316	3
0	3476	1162.444510677439	2
0	3483	1164.112506323593	1
0	3489	1167.022858605495	0
0	3512	1170.480070380802	1
0	3514	1170.956558571657	2
0	3516	1171.228396651688	3
0	3518	1171.912078813233	4
0	3520	1172.158649777788	5
0	3522	1172.765659951614	4
0	3529	1174.287860569042	3
0	3543	1179.485063025659	4
0	3544	1181.033681707347	3
0	3550	1182.646576028445	4
0	3551	1183.916503322836	3
0	3556	1184.00406607696	2
0	3563	1185.242368334659	1
0	3569	1185.52908325185	0
0	3581	1187.731732414267	1
0	3582	1189.238540623788	0
0	3613	1203.114516554403	1
0	3614	1203.793204285218	0
0	3620	1203.830007132042	1
0	3623	1205.513848389363	2
0	3624	1206.133446769802	1
0	3630	1206.69463947278	2
0	3633	1211.679913686537	1
0	3638	1213.32456106917	0
0	3658	1218.397624336187	1
0	3659	1218.479746184897	0
0	3665	1219.263494696088	1
0	3667	1220.381992186408	2
0	3669	1221.252611040557	3
0	3672	1222.985450385925	2
0	3677	1223.884324255221	1
0	3682	1224.217699046023	0
0	3709	1234.947838583585	1
0	3710	1235.100979193544	0
0	3742	1254.717012630204	1
0	3746	1257.860486600932	2
0	3747	1260.264697689915	1
0	3753	1262.931777391987	0
0	3779	1279.518646999817	1
0	3780	1280.501940259863	0
0	3794	1282.823190771727	1
0	3798	1284.811948775647	2
0	3802	1286.463657547343	1
0	3807	1286.637853360715	0
0	3837	1292.128590145985	1
0	3841	1293.153544737885	2
0	3842	1293.33651035777	1
0	3849	1295.579865204393	2
0	3853	1300.108585240764	3
0	3854	1301.217540641761	2
0	3862	1302.293333014146	1
0	3867	1302.500688287275	0
0	3881	1308.197700645213	1
0	3888	1310.970672571371	0
0	3900	1312.670089104991	1
0	3901	1313.586305981123	0
0	3912	1316.366723439924	1
0	3914	1321.52031387868	2
0	3915	1321.861914166483	1
0	3921	1322.595140085959	2
0	3923	1324.509857276997	1
0	3929	1325.821347021	2
0	3931	1328.333158424598	1
0	3938	1334.576812800627	2
0	3940	1335.769119257457	3
0	3941	1336.555165877956	2
0	3953	1343.434238201185	1
0	3959	1343.631675028895	2
0	3960	1344.09957062097	1
0	3967	1345.575301956272	2
0	3970	1346.43218712694	3
0	3973	1348.79898747699	2
0	3978	1349.618415390253	1
0	3983	1350.530347905192	0
0	3994	1351.497911056569	1
0	3996	1353.461992136177	2
0	3999	1354.072295422597	3
0	4002	1355.500631180373	4
0	4003	1356.169658834966	3
0	4009	1356.520348729982	2
0	4016	1356.765624571257	3
0	4017	1357.934941412167	2
0	4024	1358.893910335012	1
0	4030	1359.488662192644	0
0	4051	1366.561763618566	1
0	4054	1367.696998889595	0
0	4071	1373.282079430023	1
0	4074	1375.697869342639	0
0	4091	1377.961733740132	1
0	4092	1378.662428446302	0
0	4112	1385.068955758815	1
0	4113	1387.663596299366	0
0	4122	1391.125157282583	1
0	4124	1391.47680173365	2
0	4130	1392.998420888476	3
0	4133	1393.647926529323	4
0	4134	1398.076541540643	3
0	4140	1403.018872029066	2
0	4146	1404.155454367007	1
0	4151	1404.750817594394	0
0	4171	1412.42838548928	1
0	4173	1412.733880376078	2
0	4174	1413.117976597087	1
0	4181	1414.096003802775	0
0	4201	1418.025150509459	1
0	4203	1420.219017356179	2
0	4207	1423.470832460163	3
0	4209	1425.194740304464	4
0	4210	1426.03858821617	3
0	4216	1426.979807385621	2
0	4222	1430.116100284823	1
0	4228	1431.251851937089	2
0	4233	1433.524942795697	3
0	4234	1433.929907382116	2
0	4240	1434.848232436571	1
0	4249	1437.668114826884	0
0	4256	1439.112122330454	1
0	4257	1439.293511681653	0
0	4270	1444.747967783053	1
0	4271	1445.561330202637	0
0	4299	1450.849604459999	1
0	4301	1452.3576269913	2
0	4302	1453.967610048775	1
0	4307	1454.927330203386	0
0	4335	1467.137941581926	1
0	4336	1468.021608911205	0
0	4348	1469.528885971463	1
0	4354	1470.477338429896	2
0	4357	1471.65122429144	1
0	4367	1472.862530380171	2
0	4370	1476.302326848988	1
0	4375	1478.233224718352	0
0	4382	1479.647618851978	1
0	4383	1480.903835886891	0
0	4404	1483.866835921233	1
0	4406	1483.870841316633	2
0	4421	1494.28341701756	3
0	4425	1497.858761917991	4
0	4427	1501.486363769351	5
0	4428	1503.050408624279	4
0	4436	1505.212693773113	3
0	4441	1505.744899721517	2
0	4446	1505.948847948797	1
0	4452	1507.277925028251	0
0	4458	1508.161758954012	1
0	4459	1508.478099292323	0
0	4480	1516.440188180751	1
0	4484	1516.685876678066	2
0	4485	1516.949797046223	1
0	4490	1517.502980574799	0
0	4518	1525.027879458954	1
0	4519	1525.087260462133	0
0	4528	1527.913232457789	1
0	4529	1529.039420925583	0
0	4535	1529.439102263965	1
0	4536	1529.58260753691	0
0	4552	1532.132180008874	1
0	4554	1532.945187354729	2
0	4558	1534.437416714122	1
0	4565	1535.973676854765	0
0	4574	1537.663527560276	1
0	4575	1537.745861337761	0
0	4590	1543.298623332555	1
0	4598	1546.318442836707	0
0	4612	1547.251121177867	1
0	4613	1547.428396407959	0
0	4620	1551.850823203862	1
0	4622	1554.228826158739	2
0	4623	1554.387884538052	1
0	4631	1556.31910435062	0
0	4638	1556.833684562841	1
0	4641	1558.386957965256	0
0	4680	1573.77994994405	1
0	4681	1573.834518857913	0
0	4691	1574.938608468421	1
0	4698	1577.665497508778	0
0	4710	1579.07151803585	1
0	4713	1580.107464746885	0
0	4719	1582.942917983806	1
0	4722	1584.047284679188	2
0	4724	1584.277685918933	3
0	4725	1585.727603699376	2
0	4730	1586.856704206548	1
0	4737	1588.394291495555	0
0	4748	1589.527051241348	1
0	4749	1589.614265765953	0
0	4755	1590.136850094781	1
0	4757	1591.748245303107	0
0	4763	1592.387436929665	1
0	4767	1593.703746667782	2
0	4769	1595.763631567787	3
0	4773	1601.553277252001	2
0	4778	1602.444371284047	1
0	4785	1603.072444175048	2
0	4786	1603.843669019668	1
0	4791	1604.500484903444	0
0	4819	1608.973325144463	1
0	4827	1617.462722352663	0
0	4854	1632.156455949603	1
0	4860	1636.686434777676	2
0	4861	1641.408111919548	1
0	4866	1642.322773084292	0
0	4873	1642.782816505912	1
0	4876	1643.556715862148	0
0	4896	1652.816040072379	1
0	4897	1653.096042409616	0
0	4904	1654.194331929495	1
0	4905	1655.546098376658	0
0	4921	1662.471101362826	1
0	4926	1664.419918992847	0
0	4941	1674.98945849888	1
0	4945	1676.942771731674	2
0	4949	1678.214477417945	3
0	4950	1679.738549797854	2
0	4955	1680.018264185177	1
0	4965	1684.580673366933	2
0	4968	1686.73205097316	1
0	4974	1687.497944296622	2
0	4976	1687.567192592689	3
0	4978	1688.367482855884	4
0	4979	1688.390826653162	3
0	4984	1688.756156412222	2
0	4990	1689.240585756755	3
0	4997	1691.15627600743	2
0	5010	1698.489711268768	3
0	5011	1699.019047986823	2
0	5017	1701.825031414838	1
0	5029	1703.572111785645	0
0	5052	1706.55928781703	1
0	5056	1710.523703264383	2
0	5057	1710.569744735693	1
0	5062	1711.52473233969	0
0	5068	1711.917173242009	1
0	5071	1714.209790132046	0
0	5077	1714.654177638826	1
0	5078	1716.232830760111	0
0	5122	1730.214496996582	1
0	5123	1730.991116279821	0
0	5130	1732.173861556528	1
0	5132	1733.853415688823	0
0	5173	1748.863685112114	1
0	5176	1752.206229365551	0
0	5182	1753.102751491775	1
0	5184	1753.475733167092	2
0	5187	1754.775830683145	1
0	5192	1755.077427500146	0
0	5210	1758.715863869071	1
0	5218	1760.818020687439	2
0	5221	1763.221744966281	1
0	5228	1765.771775197699	2
0	5231	1770.023996719123	1
0	5237	1771.587234613982	0
0	5243	1772.026984072392	1
0	5244	1773.755930474037	0
0	5255	1774.271870312933	1
0	5256	1774.397917763234	0
0	5285	1780.774845800268	1
0	5286	1783.575074562257	0
0	5297	1785.15822959764	1
0	5300	1789.967356223321	0
0	5307	1791.549979563868	1
0	5308	1791.868626211435	0
0	5315	1793.175257508362	1
0	5318	1795.77193270337	0
0	5324	1796.13613413987	1
0	5325	1796.591125438264	0
0	5345	1801.801584594595	1
0	5351	1803.251129172058	2
0	5354	1803.327463670333	3
0	5355	1803.717970989245	2
0	5360	1804.032757154765	1
0	5369	1809.273933653856	2
0	5372	1810.058955367205	1
0	5379	1810.392940916793	2
0	5380	1813.42079363292	1
0	5387	1816.205230560983	2
0	5389	1816.44922841701	3
0	5391	1816.584613291199	4
0	5393	1817.099113160066	5
0	5396	1818.995178856202	4
0	5404	1821.191702151903	3
0	5410	1822.474590675185	2
0	5417	1822.921697789326	1
0	5422	1823.219485778632	0
0	5440	1826.989441274417	1
0	5443	1827.227145201698	2
0	5446	1829.244471091377	1
0	5451	1829.318644190474	0
0	5468	1830.80500663656	1
0	5470	1831.519144021588	2
0	5476	1834.693534997794	3
0	5482	1837.441664088705	4
0	5489	1842.889622807449	3
0	5496	1843.990051045792	4
0	5498	1845.958611850545	5
0	5499	1846.054140528902	4
0	5505	1846.798790809588	3
0	5512	1847.429885208761	4
0	5514	1848.169921123767	3
0	5520	1855.767117769726	2
0	5529	1861.074100950263	1
0	5535	1865.947611028263	0
0	5568	1876.454098297768	1
0	5573	1878.05903593031	0
0	5579	1878.421195256334	1
0	5581	1879.635007552654	2
0	5582	1880.377143830785	1
0	5590	1880.570048669249	2
0	5592	1880.983724763398	3
0	5593	1881.43590962571	2
0	5598	1881.473660876829	1
0	5604	1882.908215043534	0
0	5612	1887.101588008674	1
0	5613	1888.135739588905	0
0	5617	1888.997096691203	1
0	5619	1889.174688152216	2
0	5623	1889.31624727031	3
0	5629	1891.482695087531	4
0	5635	1894.18595087545	3
0	5640	1894.256138735215	2
0	5647	1897.730206427391	3
0	5651	1898.951470804569	2
0	5656	1899.193928783506	1
0	5661	1899.387734264093	0
0	5678	1907.779595369935	1
0	5680	1909.69507755573	0
0	5686	1909.754616158502	1
0	5695	1912.428856342023	0
0	5701	1912.580091016983	1
0	5703	1913.570376625206	2
0	5706	1914.861693474167	3
0	5708	1914.996334905741	4
0	5710	1915.782394987808	5
0	5711	1916.761276950956	4
0	5718	1919.655578771453	3
0	5723	1920.1777063605	2
0	5729	1920.801016284093	3
0	5731	1921.706985677659	2
0	5737	1922.497883332478	3
0	5738	1923.065656549745	2
0	5744	1923.973179038804	1
0	5750	1925.114230112756	0
0	5773	1933.322502087736	1
0	5775	1935.997627901599	2
0	5777	1937.688024123049	3
0	5778	1937.829613691358	2
0	5783	1938.247433292152	1
0	5789	1938.283819041621	2
0	5793	1940.65462757277	3
0	5798	1942.669636857598	4
0	5800	1943.137990539067	3
0	5807	1943.556821052848	4
0	5809	1943.728191427137	5
0	5810	1944.057101878292	4
0	5815	1944.971262538477	3
0	5822	1947.657007946349	2
0	5829	1951.053055885355	3
0	5831	1952.173798626109	2
0	5838	1954.273746137957	3
0	5840	1957.753629890094	4
0	5842	1958.058718978951	5
0	5846	1959.324921918987	6
0	5849	1960.379498821929	5
0	5862	1964.862097844964	6
0	5863	1965.134885344274	5
0	5869	1965.862157555457	6
0	5871	1967.593930898648	7
0	5873	1971.366869632075	8
0	5874	1972.695269180584	7
0	5879	1972.746657806468	6
0	5884	1972.750553372646	5
0	5891	1974.928407903313	4
0	5896	1975.925139594381	3
0	5901	1977.293892547464	2
0	5905	1978.168545818277	3
0	5907	1978.757561788393	4
0	5909	1979.088274937398	5
0	5913	1986.343755349023	4
0	5918	1986.665435115582	3
0	5922	1987.387660349753	4
0	5928	1987.982899924642	5
0	5930	1989.002343780219	4
0	5936	1989.274822556227	3
0	5945	1992.008961007141	4
0	5947	1995.61186965867	3
0	5952	1995.769585143775	2
0	5957	1995.804899554892	1
0	5967	1999.077850377247	0
0	5991	2005.555477665495	1
0	5992	2005.935678742112	0
0	6015	2010.187668264207	1
0	6020	2020.14146427403	0
0	6027	2021.748993045926	1
0	6029	2022.155319827668	2
0	6030	2022.446478562408	1
0	6035	2025.075839191609	0
0	6046	2025.584143778711	1
0	6047	2025.908825074127	0
0	6069	2037.673966186831	1
0	6079	2044.67270245986	2
0	6081	2046.136415484135	3
0	6083	2046.85030840337	4
0	6084	2048.208506873536	3
0	6093	2051.696081657418	4
0	6095	2051.985198613124	5
0	6096	2053.411828453066	4
0	6102	2056.168945416241	3
0	6108	2056.198240003736	4
0	6109	2056.2154616893	3
0	6114	2056.539059597425	2
0	6122	2058.040884387085	3
0	6123	2059.220573175813	2
0	6129	2059.805886854051	1
0	6136	2064.505835559043	0
0	6160	2075.137641098029	1
0	6164	2076.571623846348	2
0	6167	2077.203881793782	3
0	6168	2079.195768792049	2
0	6175	2079.548189403496	3
0	6180	2081.31998131844	2
0	6185	2081.43736369279	1
0	6191	2081.643086571579	0
0	6197	2082.135491275532	1
0	6198	2082.556701286665	0
0	6207	2083.017077958818	1
0	6209	2083.393168207589	2
0	6212	2086.327410336143	1
0	6218	2088.611765729948	0
0	6229	2088.918342072464	1
0	6231	2089.648571046636	2
0	6232	2090.790468457805	1
0	6239	2093.669398557173	0
0	6245	2093.766552537841	1
0	6246	2093.84477132727	0
0	6287	2101.643902310042	1
0	6288	2102.453709532262	0
0	6332	2123.633947079702	1
0	6333	2125.668775664905	0
0	6339	2126.062238353003	1
0	6341	2126.460375413528	2
0	6342	2126.636025557276	1
0	6349	2129.662505468514	0
0	6365	2137.979511149984	1
0	6367	2138.546142489366	2
0	6369	2138.791327836886	3
0	6375	2141.353245479176	4
0	6377	2144.656490313326	5
0	6379	2146.994662258534	6
0	6383	2150.67535942075	7
0	6387	2154.382260624965	8
0	6392	2155.464119144085	7
0	6398	2156.771339709274	8
0	6401	2157.572512224762	9
0	6404	2160.297334216716	8
0	6409	2160.97332923608	7
0	6419	2166.995524348639	8
0	6421	2167.768638144802	9
0	6422	2170.937850236423	8
0	6430	2172.518054204363	9
0	6433	2175.515703074833	8
0	6440	2176.340274746718	7
0	6445	2176.4353985432	6
0	6450	2177.003481946311	5
0	6455	2177.789354763308	4
0	6462	2178.563095716016	5
0	6464	2179.086769325517	6
0	6465	2179.418535215125	5
0	6470	2180.647634058356	4
0	6474	2181.210071706978	5
0	6478	2186.167765711922	4
0	6484	2186.613366319824	3
0	6490	2187.565328571725	2
0	6496	2188.370321733899	3
0	6498	2190.670403333285	4
0	6499	2191.215141402963	3
0	6504	2191.697410618316	2
0	6512	2194.993064916951	3
0	6513	2195.738492867151	2
0	6520	2202.178035075137	1
0	6529	2207.293955098843	2
0	6531	2208.071948853528	1
0	6542	2216.2995661881	2
0	6544	2217.015704507685	3
0	6545	2217.155677432593	2
0	6551	2219.783803299896	1
0	6558	2221.347312907275	2
0	6559	2221.704301071237	1
0	6565	2223.760706819636	0
0	6601	2239.160300095342	1
0	6605	2241.297087253691	2
0	6607	2243.693422384184	3
0	6609	2244.594307824685	4
0	6610	2244.61595537046	3
0	6617	2244.921073018827	4
0	6618	2245.23964350189	3
0	6623	2245.3281767226	2
0	6628	2245.481246985254	1
0	6633	2245.811678477908	0
0	6642	2246.685107134391	1
0	6646	2247.780988851459	2
0	6649	2250.114130422866	1
0	6655	2251.280695721236	2
0	6659	2255.037820219464	3
0	6660	2255.837240341761	2
0	6664	2256.307029574314	3
0	6668	2259.811467037915	2
0	6672	2260.215841761494	3
0	6680	2264.294255280926	2
0	6689	2270.874918315501	1
0	6696	2271.517147543055	2
0	6698	2271.696595866035	3
0	6700	2273.350977181539	4
0	6704	2278.031940786491	5
0	6706	2279.350202729515	6
0	6708	2279.384656251984	7
0	6709	2279.752990274098	6
0	6715	2280.666862458817	5
0	6720	2282.699939584437	4
0	6725	2282.876285755413	3
0	6732	2283.90404667809	2
0	6737	2285.015179882486	1
0	6742	2285.026782524564	0
0	6746	2286.316974165992	1
0	6749	2287.227259521681	0
0	6753	2287.278295498173	1
0	6756	2289.44939948391	0
0	6762	2290.461060244255	1
0	6766	2292.153095137833	2
0	6767	2292.263704914506	1
0	6771	2292.656172375351	2
0	6774	2294.114754017648	1
0	6779	2295.178373316568	0
0	6787	2299.255663890882	1
0	6789	2300.100136152155	2
0	6790	2300.523222685412	1
0	6795	2301.049191913329	0
0	6807	2305.333076702371	1
0	6808	2305.565004859305	0
0	6812	2306.191874464129	1
0	6818	2308.700295542286	0
0	6845	2314.83324536106	1
0	6847	2316.982681882085	0
0	6856	2318.718455277928	1
0	6859	2319.376912713469	0
0	6873	2330.270560697092	1
0	6875	2333.284745304478	2
0	6876	2333.324189380651	1
0	6881	2333.661022995278	0
0	6897	2334.022959102499	1
0	6901	2338.480878948986	0
0	6909	2339.575056380988	1
0	6913	2340.86684158137	2
0	6914	2340.913825604794	1
0	6921	2341.658612830891	2
0	6923	2342.992267624084	1
0	6931	2345.577236211495	0
0	6945	2348.448065380367	1
0	6948	2352.944811808649	0
0	6961	2354.165290318033	1
0	6962	2354.428032374387	0
0	6969	2354.463449029016	1
0	6970	2355.109391599148	0
0	6977	2357.015401553539	1
0	6980	2364.283439836895	0
0	6986	2364.738255813447	1
0	6990	2366.513667799732	0
0	7006	2372.138761999349	1
0	7009	2372.341725220861	0
0	7015	2372.934719416242	1
0	7019	2375.220161166924	0
0	7034	2377.966687867622	1
0	7040	2379.008575362103	2
0	7042	2379.265878323279	3
0	7043	2382.249980617484	2
0	7049	2384.29229776318	1
0	7055	2387.429830403319	0
0	7067	2393.973626256658	1
0	7068	2394.465923553807	0
0	7074	2396.737192504813	1
0	7076	2397.011140543373	2
0	7078	2398.716691820145	1
0	7084	2399.671431752041	2
0	7085	2400.544354777428	1
0	7092	2402.726166511553	2
0	7099	2405.926172366985	3
0	7100	2405.98971849148	2
0	7106	2408.311979588127	1
0	7112	2409.509845028644	0
0	7121	2411.183551432582	1
0	7122	2411.939267983042	0
0	7141	2417.319912373886	1
0	7145	2420.307033144643	2
0	7146	2421.378254226288	1
0	7151	2422.688821762752	0
0	7159	2425.186626496951	1
0	7163	2426.947829637081	2
0	7165	2427.072615903587	3
0	7166	2427.452163639475	2
0	7175	2428.013588651721	3
0	7176	2428.208776290072	2
0	7181	2428.557423900533	1
0	7187	2429.295615313084	0
0	7222	2438.218832918737	1
0	7224	2440.261659847609	2
0	7227	2441.439963440033	1
0	7234	2441.929538941603	0
0	7243	2446.250268275893	1
0	7244	2446.698145563618	0
0	7257	2449.197781314307	1
0	7258	2449.204256743465	0
0	7267	2452.477130753257	1
0	7272	2460.726002489559	0
0	7278	2460.962020863937	1
0	7284	2466.938437332572	0
0	7290	2467.844563878589	1
0	7292	2468.433723010053	0
0	7316	2477.914055302669	1
0	7319	2481.009312639051	0
0	7345	2485.828878340817	1
0	7347	2487.590285390012	2
0	7348	2487.595646360854	1
0	7353	2488.530247318634	0
0	7359	2488.646439110165	1
0	7360	2488.975495918527	0
0	7373	2492.563150594736	1
0	7379	2493.923012933474	2
0	7380	2495.264258466401	1
0	7385	2495.421456964335	0
0	7402	2504.628809700748	1
0	7403	2505.866464227929	0
0	7410	2506.935417607738	1
0	7411	2507.456609413506	0
0	7430	2513.249043184233	1
0	7431	2513.956414632394	0
0	7452	2519.484802882925	1
0	7455	2520.351763979384	0
0	7473	2528.068916708275	1
0	7474	2528.195555552351	0
0	7481	2529.198148211834	1
0	7482	2529.287159886699	0
0	7506	2533.824685465488	1
0	7510	2536.78647908191	2
0	7511	2539.082299729501	1
0	7519	2539.499156361993	2
0	7523	2543.673355780875	3
0	7524	2544.107074012594	2
0	7530	2546.945121688355	1
0	7536	2547.074918772022	2
0	7538	2547.152016515209	3
0	7540	2547.74419684977	2
0	7546	2548.165384655129	3
0	7548	2548.495339424273	4
0	7554	2551.241669296631	3
0	7559	2551.500601624637	2
0	7567	2553.912650324159	3
0	7569	2555.402318476884	4
0	7571	2555.687941012408	5
0	7574	2557.549093418355	4
0	7581	2558.500799815	5
0	7583	2558.927020120475	6
0	7584	2559.682346648406	5
0	7589	2560.831825878003	4
0	7598	2563.019593041457	3
0	7607	2564.125887974588	2
0	7613	2564.508990426361	1
0	7619	2565.083281173149	2
0	7620	2565.138694432224	1
0	7625	2565.188261484715	0
0	7640	2566.62485231328	1
0	7643	2567.285216992655	0
0	7652	2571.088030432442	1
0	7654	2573.112592728591	2
0	7656	2573.62193978301	1
0	7663	2574.138482002151	2
0	7666	2574.274792060134	3
0	7674	2580.043905148245	2
0	7679	2580.357708643817	1
0	7687	2586.436671153199	0
0	7694	2588.172406479958	1
0	7696	2588.532602628054	2
0	7698	2588.905854681011	3
0	7699	2589.413540587208	2
0	7705	2589.899894325025	3
0	7706	2590.129790776685	2
0	7714	2595.671497426345	3
0	7715	2599.984499404797	2
0	7720	2600.101508635544	1
0	7728	2602.379550599717	0
0	7740	2604.290367753024	1
0	7741	2604.947459815293	0
0	7757	2608.675261316514	1
0	7758	2608.735220010686	0
0	7788	2622.948984571617	1
0	7789	2622.952147835809	0
0	7795	2623.16484524961	1
0	7796	2623.505445696229	0
0	7812	2626.427234233122	1
0	7815	2629.412704439074	0
0	7824	2631.570050624	1
0	7828	2634.370908549655	0
0	7847	2642.009424973636	1
0	7849	2644.854003171759	2
0	7850	2644.861344767459	1
0	7858	2645.656236546277	2
0	7863	2648.32659449293	1
0	7870	2654.152685926606	2
0	7873	2655.224024729391	1
0	7879	2656.720469593202	2
0	7883	2658.053813935603	1
0	7889	2659.674980593313	0
0	7896	2661.976018355625	1
0	7898	2662.521171854496	2
0	7900	2663.117264743344	3
0	7901	2663.152240193667	2
0	7908	2664.76724926153	1
0	7914	2665.314807942434	0
0	7920	2667.444125114557	1
0	7923	2668.029639615713	2
0	7924	2668.62643945791	1
0	7934	2670.804625737019	0
0	7941	2674.86873104297	1
0	7942	2678.584233081876	0
0	7962	2681.853025243749	1
0	7963	2683.251601890585	0
0	7988	2686.478903123503	1
0	7992	2689.84105908756	2
0	7995	2693.91598215882	1
0	8000	2694.619092971637	0
0	8034	2704.959658607501	1
0	8037	2704.985924620704	2
0	8038	2706.296113690379	1
0	8045	2708.799007374477	2
0	8047	2710.28194396703	3
0	8048	2711.347420572934	2
0	8054	2713.48601624189	1
0	8059	2713.85009111955	0
0	8065	2713.87644663947	1
0	8066	2715.207543126101	0
0	8073	2715.428224960171	1
0	8075	2715.517471998872	2
0	8077	2718.505441209601	1
0	8082	2718.65789313073	0
0	8088	2719.5831923885	1
0	8089	2719.60642546993	0
0	8110	2726.057221493474	1
0	8115	2730.363102062676	0
0	8131	2738.184998731696	1
0	8132	2738.99440720176	0
0	8145	2745.825131706187	1
0	8146	2745.942768694251	0
0	8152	2746.380712017575	1
0	8153	2748.330237164455	0
0	8165	2748.743799280018	1
0	8167	2749.757002245474	2
0	8169	2750.066412148858	3
0	8170	2750.244221287289	2
0	8176	2750.34057929427	3
0	8180	2751.70397581585	4
0	8182	2752.2651776719	3
0	8187	2753.135508486764	2
0	8192	2755.318604817913	1
0	8198	2755.370910866212	2
0	8199	2756.692083368255	1
0	8208	2761.481124043382	0
0	8216	2761.91320831285	1
0	8217	2762.543376211692	0
0	8227	2765.601304123885	1
0	8230	2767.728880887122	2
0	8237	2770.874980804836	3
0	8238	2771.061704115108	2
0	8245	2772.73363935566	3
0	8246	2772.969915289691	2
0	8253	2774.357260638841	3
0	8255	2774.875426330229	4
0	8257	2778.852616943802	5
0	8259	2778.93325412232	6
0	8260	2779.067206978207	5
0	8270	2779.7596390123	4
0	8277	2781.217261497698	5
0	8279	2781.463957475081	6
0	8280	2781.635456888568	5
0	8290	2785.894773862049	6
0	8292	2785.972112868047	7
0	8293	2791.435305030289	6
0	8299	2792.464741100946	7
0	8301	2793.413051429627	8
0	8302	2795.098165894672	7
0	8308	2795.889257392355	6
0	8314	2796.625631705772	7
0	8317	2799.371767849171	6
0	8323	2800.180721464583	5
0	8329	2800.853076938189	6
0	8331	2801.031696697938	7
0	8332	2801.234413871516	6
0	8337	2801.708843488589	5
0	8344	2802.228035683501	6
0	8346	2802.88454526334	7
0	8347	2803.655091636563	6
0	8353	2805.062694676378	7
0	8355	2805.397855130721	8
0	8357	2806.339806252302	7
0	8362	2806.393008098022	6
0	8368	2806.803752973119	7
0	8372	2808.459059102206	8
0	8373	2808.463946092793	7
0	8377	2809.026167780329	8
0	8379	2809.559674958931	9
0	8382	2810.154522879017	8
0	8391	2811.839440568413	9
0	8392	2813.755840940774	8
0	8399	2819.343447032016	7
0	8404	2819.679278451642	6
0	8409	2819.957852226959	5
0	8414	2821.74957764391	4
0	8420	2823.01304181506	5
0	8422	2823.088696805581	6
0	8423	2827.850863929227	5
0	8430	2836.022287988065	6
0	8434	2839.159746405565	7
0	8436	2840.325088010076	8
0	8437	2840.348013797422	7
0	8444	2841.13900410616	6
0	8450	2841.358239582532	7
0	8454	2842.515567831858	8
0	8455	2842.736414407636	7
0	8460	2843.067249461103	6
0	8465	2845.841261406742	5
0	8474	2848.06889855863	6
0	8475	2851.457950547982	5
0	8482	2851.526499916499	4
0	8486	2852.158083128645	5
0	8489	2854.310753289004	4
0	8494	2856.538652374435	3
0	8507	2863.176019378778	4
0	8508	2863.37072720136	3
0	8513	2863.728911532158	2
0	8523	2866.716002347702	1
0	8528	2866.785851613593	0
0	8552	2869.771643423856	1
0	8553	2870.175473547026	0
0	8559	2870.529880307619	1
0	8561	2870.712212002576	2
0	8566	2872.640414610383	3
0	8568	2873.806366540305	2
0	8573	2875.829041294012	1
0	8578	2875.901554264138	0
0	8584	2876.100972926485	1
0	8586	2876.182177166783	2
0	8597	2881.798083482064	1
0	8603	2883.524834597846	2
0	8605	2885.129291539546	1
0	8610	2886.232499659994	0
0	8637	2895.622478117842	1
0	8643	2904.373738554438	2
0	8645	2907.004602359099	3
0	8646	2907.293239188479	2
0	8657	2911.42351372039	3
0	8659	2912.833886650147	4
0	8660	2913.509913807668	3
0	8667	2919.204993666297	4
0	8669	2920.323966940975	5
0	8671	2921.070134219309	6
0	8672	2923.783334741726	5
0	8679	2924.193372479006	6
0	8680	2924.361402408003	5
0	8685	2926.243109388305	4
0	8690	2927.043863240612	3
0	8696	2928.143696377982	2
0	8703	2931.893020192753	1
0	8709	2932.498995375886	0
0	8749	2942.765331512198	1
0	8758	2946.072679060746	2
0	8759	2948.446476608861	1
0	8766	2949.801548078671	2
0	8767	2953.811495914059	1
0	8775	2956.843417341984	0
0	8791	2961.039710519217	1
0	8793	2967.418949046027	2
0	8794	2969.032497789443	1
0	8803	2971.701948886188	0
0	8810	2972.626515044028	1
0	8812	2973.14089254269	2
0	8814	2974.522395016685	3
0	8820	2978.211472361236	4
0	8822	2978.982099982533	5
0	8824	2978.996842781106	6
0	8825	2979.575709266334	5
0	8830	2980.222689945848	4
0	8836	2980.581117106568	3
0	8841	2980.731082758459	2
0	8846	2980.820867976543	1
0	8852	2981.358026405504	2
0	8855	2982.078708221592	1
0	8861	2982.728032875176	2
0	8867	2988.17544271085	3
0	8869	2988.9675630521	4
0	8871	2989.782678523224	5
0	8872	2990.297469483443	4
0	8878	2990.451349611476	5
0	8879	2991.005523109582	4
0	8884	2994.841234128852	3
0	8891	2995.51020363124	2
0	8899	3001.136218788692	1
0	8904	3002.488387099203	0
0	8919	3007.319694188389	1
0	8926	3011.079564841644	2
0	8928	3011.143964481435	3
0	8932	3012.292694153201	4
0	8937	3015.657989529066	3
0	8945	3017.442953833083	4
0	8946	3017.552258500328	3
0	8951	3017.618317475124	2
0	8956	3018.571898372293	1
0	8966	3019.13876234646	2
0	8967	3019.442673845196	1
0	8973	3019.750739435878	2
0	8975	3019.817914234763	3
0	8980	3021.073257925428	4
0	8981	3021.66541001895	3
0	8989	3024.644469082364	2
0	8998	3026.598641669561	3
0	8999	3027.593664390916	2
0	9005	3027.889222051817	3
0	9006	3028.000472010895	2
0	9014	3033.561789342171	1
0	9020	3034.939635791765	2
0	9021	3036.926348022263	1
0	9029	3038.605882637806	2
0	9031	3038.859960607389	3
0	9032	3041.602050701376	2
0	9040	3045.16641133601	1
0	9048	3046.392377751458	2
0	9050	3047.241650807106	3
0	9051	3047.526434210097	2
0	9061	3050.01629527014	1
0	9068	3051.329946006914	2
0	9070	3052.922603079052	1
0	9075	3053.338941953089	0
0	9082	3057.084921468434	1
0	9083	3059.372920547624	0
0	9108	3066.537657567212	1
0	9109	3067.369379620136	0
0	9126	3072.345963473675	1
0	9129	3075.007030362731	0
0	9149	3081.070576720229	1
0	9153	3083.352789754281	2
0	9154	3083.367789773499	1
0	9164	3089.669467240881	0
0	9181	3094.009466032159	1
0	9183	3094.326471952314	2
0	9187	3095.084046318905	3
0	9188	3097.519563212716	2
0	9193	3098.772565811731	1
0	9205	3100.693830914	0
0	9230	3108.540298290155	1
0	9234	3112.425582672354	0
0	9245	3119.061542669098	1
0	9246	3119.804127312949	0
0	9266	3124.280169760601	1
0	9268	3124.49288336337	2
0	9270	3126.12501526472	3
0	9272	3126.906023827941	4
0	9275	3128.933003029679	3
0	9281	3130.436875401051	2
0	9287	3130.736403391846	3
0	9296	3137.376702824129	2
0	9301	3137.594834646155	1
0	9306	3138.965906792221	0
0	9328	3141.495659615441	1
0	9332	3144.985275022549	0
0	9357	3153.400011168169	1
0	9358	3158.025391591711	0
0	9365	3159.411570559603	1
0	9370	3161.955808961505	2
0	9372	3163.943533352647	1
0	9378	3164.691048477251	2
0	9379	3165.051955062483	1
0	9388	3170.686989428991	0
0	9399	3171.194843411591	1
0	9400	3172.328908495808	0
0	9406	3172.438034770833	1
0	9410	3174.294988467699	2
0	9413	3177.405197107948	1
0	9419	3178.397375777618	0
0	9436	3185.061471323223	1
0	9437	3185.275323488042	0
0	9443	3186.032313614951	1
0	9446	3189.531204468951	0
0	9471	3197.800826380297	1
0	9473	3198.152413193162	0
0	9488	3201.171606702292	1
0	9493	3207.24576657282	2
0	9495	3209.349399373697	3
0	9497	3210.787484874128	4
0	9499	3211.619795316231	5
0	9500	3214.395841323022	4
0	9506	3217.799666717551	3
0	9515	3220.986087757192	4
0	9518	3225.548822779206	3
0	9523	3226.03027498945	2
0	9528	3226.24530755547	1
0	9535	3226.844182103702	2
0	9536	3226.85526852201	1
0	9545	3230.170409248179	0
0	9552	3230.597077966766	1
0	9553	3230.743828981642	0
0	9563	3231.876628552128	1
0	9565	3232.473916087331	2
0	9569	3233.308218885141	1
0	9575	3234.644043675789	0
0	9588	3236.988816136468	1
0	9591	3237.347769635132	2
0	9592	3237.568635812817	1
0	9598	3238.243287027934	0
0	9626	3244.446069366315	1
0	9631	3248.253319461398	2
0	9632	3248.504562370318	1
0	9638	3248.52884598577	2
0	9639	3249.026216935616	1
0	9645	3250.323045087408	2
0	9649	3253.661776056007	1
0	9654	3254.103619568305	0
0	9661	3258.153749945781	1
0	9663	3259.605022882469	2
0	9664	3259.994942538799	1
0	9677	3264.994334318415	0
0	9702	3269.821154043169	1
0	9704	3269.870058135511	2
0	9708	3271.602830089922	3
0	9711	3275.020341959612	2
0	9716	3276.37327351699	1
0	9723	3278.980423343978	0
0	9733	3284.112688291827	1
0	9734	3284.894355589157	0
0	9741	3289.581165697112	1
0	9742	3291.22118602835	0
0	9798	3308.233452735066	1
0	9805	3311.596249536561	0
0	9823	3314.546108890871	1
0	9824	3315.705456124746	0
0	9840	3322.126759966199	1
0	9844	3323.757880325432	0
0	9865	3328.001342309367	1
0	9867	3328.721749144362	2
0	9869	3331.23034115426	3
0	9872	3332.956787258383	2
0	9877	3333.983872844751	1
0	9882	3334.332084027162	0
0	9895	3335.521904119319	1
0	9897	3336.304495370544	0
0	9903	3336.558286112344	1
0	9905	3337.620087213857	0
0	9913	3338.353266851702	1
0	9914	3338.45582996639	0
0	9948	3350.305370471851	1
0	9950	3350.421634290101	2
0	9952	3351.162885757069	3
0	9956	3351.726242346184	4
0	9960	3352.420308481167	5
0	9963	3356.74089760369	4
0	9969	3356.934511956667	3
0	9975	3357.889631583705	2
0	9981	3360.776993845595	1
0	9990	3365.623235223534	0
0	10018	3373.41878953617	1
0	10020	3374.384336227742	2
0	10029	3381.984905018099	1
0	10036	3383.159366860452	2
0	10042	3385.482246036683	3
0	10043	3385.68501431648	2
0	10052	3386.961084289907	1
0	10058	3387.001956972969	2
0	10061	3387.640487411553	3
0	10064	3391.146798946941	2
0	10069	3393.497061984737	1
0	10075	3394.094553037874	2
0	10078	3394.202506334215	1
0	10084	3394.356651257912	2
0	10087	3395.489723865028	3
0	10089	3395.584109122524	4
0	10094	3396.643580827073	5
0	10095	3396.673226907371	4
0	10100	3396.914726081968	3
0	10106	3396.958120398222	4
0	10109	3398.077922284975	3
0	10116	3398.683957768069	4
0	10118	3399.274522273461	5
0	10120	3399.976753458444	4
0	10127	3401.294365474374	3
0	10135	3407.037795493024	2
0	10144	3408.119614338101	1
0	10149	3408.227186024181	0
0	10165	3413.925670504046	1
0	10167	3416.072747146833	2
0	10169	3416.892097510938	3
0	10170	3416.918420312253	2
0	10175	3416.972539246081	1
0	10180	3416.986356799287	0
0	10186	3417.084127536087	1
0	10187	3417.62403693531	0
0	10224	3427.041905917885	1
0	10227	3427.969950023398	0
0	10249	3434.865307542132	1
0	10250	3434.883707653702	0
0	10261	3439.863282810319	1
0	10263	3439.971133875479	2
0	10265	3440.033634400471	3
0	10266	3440.193964662942	2
0	10273	3441.543985048612	3
0	10276	3442.179288029754	2
0	10281	3442.370720917285	1
0	10285	3442.737169668957	2
0	10287	3444.865287241674	3
0	10291	3447.370133446591	4
0	10294	3449.061116113547	3
0	10301	3452.61382991328	2
0	10309	3455.916731776191	1
0	10317	3459.569852338559	0
0	10326	3468.118613006316	1
0	10328	3470.465663218491	2
0	10329	3470.799561095341	1
0	10337	3475.179644925763	0
0	10344	3475.769705916994	1
0	10345	3480.389292275476	0
0	10361	3482.311684789561	1
0	10364	3483.787400669362	0
0	10397	3504.205321995387	1
0	10401	3508.106215893816	2
0	10403	3508.222050554019	3
0	10405	3509.552170629157	4
0	10406	3509.737629467626	3
0	10411	3509.963566030422	2
0	10416	3510.165542387284	1
0	10423	3511.122329600719	0
0	10432	3513.764233256543	1
0	10434	3514.565380896356	2
0	10438	3520.251712862772	1
0	10443	3521.130415530188	0
0	10466	3528.746863246567	1
0	10471	3531.119599495173	2
0	10473	3531.289503161415	3
0	10474	3532.127059454955	2
0	10479	3534.147956136771	1
0	10485	3535.384164629001	2
0	10488	3537.349729116591	1
0	10494	3538.085539431836	2
0	10495	3539.343896167602	1
0	10501	3539.802550571691	0
0	10548	3551.696887122961	1
0	10552	3554.549385548507	2
0	10555	3555.921924163825	1
0	10562	3558.947129396983	2
0	10564	3559.002987557116	3
0	10565	3559.590737082683	2
0	10572	3562.073354239803	3
0	10574	3562.259597548959	4
0	10576	3562.54461404904	3
0	10581	3563.268979986882	2
0	10589	3563.94134963366	1
0	10601	3571.776262457223	2
0	10604	3572.741952093115	1
0	10609	3574.327106409085	0
0	10625	3578.541879894116	1
0	10626	3580.505072488085	0
0	10639	3582.273215541944	1
0	10642	3584.575462818891	2
0	10644	3585.099320532696	3
0	10645	3586.427492552631	2
0	10651	3587.397515242191	1
0	10656	3588.771857861922	0
0	10683	3593.43501799946	1
0	10688	3595.336676052292	2
0	10690	3596.053670475081	3
0	10694	3599.192426724009	4
0	10697	3599.809416406734	3
0	10703	3602.141676466675	2
0	10709	3602.437443758607	1
0	10715	3603.306215214737	0
0	10729	3606.686823385237	1
0	10730	3607.664898795178	0
0	10737	3608.49090940243	1
0	10739	3608.967166928282	2
0	10741	3609.396353163841	3
0	10742	3610.256081750751	2
0	10748	3610.358267930553	3
0	10749	3610.62154915622	2
0	10754	3610.660526972949	1
0	10760	3612.627003405191	0
0	10773	3614.104711127653	1
0	10774	3614.108661951069	0
0	10794	3621.694164066199	1
0	10796	3626.796784990661	2
0	10800	3628.345937509948	3
0	10802	3628.628290712542	4
0	10804	3630.75094404982	5
0	10808	3631.532069785888	6
0	10809	3632.915055173789	5
0	10814	3633.65579975761	4
0	10820	3634.532880861183	3
0	10825	3634.907737288649	2
0	10831	3635.432541982777	3
0	10832	3636.39353068201	2
0	10836	3637.518944353415	3
0	10840	3639.039600212343	4
0	10842	3639.052204885582	5
0	10844	3639.261333991981	6
0	10849	3646.0793217411	5
0	10856	3647.026670911604	6
0	10865	3650.669879447793	7
0	10866	3650.880776619744	6
0	10872	3651.318463929155	7
0	10874	3652.191742410676	6
0	10881	3653.054204912851	7
0	10884	3653.975299129522	6
0	10890	3655.820961281314	7
0	10892	3657.610160184357	8
0	10894	3658.218260444104	7
0	10900	3659.343857003487	6
0	10910	3663.151252214538	5
0	10917	3664.160674343079	4
0	10923	3664.673910524249	5
0	10929	3668.52812094054	4
0	10938	3671.370546496987	5
0	10939	3674.214055614056	4
0	10946	3676.425687756172	5
0	10947	3679.019732956659	4
0	10953	3680.125281120025	5
0	10954	3680.80238665394	4
0	10963	3682.058036743432	5
0	10965	3683.822682523797	4
0	10971	3685.21508346508	5
0	10975	3686.978790314641	6
0	10976	3687.296017019053	5
0	10982	3689.611850341653	4
0	10990	3692.661772323576	5
0	10992	3693.685424916097	6
0	10993	3694.233468734068	5
0	10998	3694.383260303784	4
0	11004	3694.520899254431	5
0	11005	3695.496086516495	4
0	11011	3695.93073594808	5
0	11014	3696.185012725915	6
0	11015	3696.985090408526	5
0	11023	3699.062397525878	4
0	11029	3701.127504703742	3
0	11035	3704.731476497695	2
0	11043	3706.412432669629	1
0	11049	3706.869845844421	2
0	11052	3707.772987207962	1
0	11063	3710.590748054343	0
0	11092	3719.804355690669	1
0	11097	3725.370912022436	0
0	11127	3735.238275726299	1
0	11129	3739.652247951162	2
0	11131	3740.602903489779	3
0	11135	3742.22661108541	4
0	11137	3744.685306055071	3
0	11143	3745.035142169765	4
0	11145	3745.036696159785	5
0	11150	3748.170434340444	6
0	11151	3748.623006230911	5
0	11156	3749.174635469619	4
0	11163	3752.640717659835	3
0	11177	3757.349827267855	4
0	11178	3758.59781304795	3
0	11185	3759.008298116394	4
0	11186	3764.448281936895	3
0	11192	3764.726553543186	4
0	11195	3768.766613705926	3
0	11200	3769.976879512142	2
0	11206	3771.054662089365	1
0	11211	3772.642113752114	0
0	11222	3773.764772933703	1
0	11227	3776.38837887957	0
0	11233	3777.100566699168	1
0	11236	3779.822071743838	0
0	11258	3783.800439365415	1
0	11261	3784.432661885717	0
0	11268	3785.080428451253	1
0	11270	3787.000252426394	2
0	11274	3790.049647017259	3
0	11275	3793.618310198781	2
0	11281	3795.095938146557	1
0	11289	3797.855395903082	0
0	11315	3801.379102999157	1
0	11319	3803.693611320266	0
0	11337	3811.499115040804	1
0	11343	3813.747668681707	0
0	11356	3822.629558845345	1
0	11360	3824.317702108293	2
0	11362	3824.999231288289	3
0	11363	3826.858313313948	2
0	11371	3832.212884557876	3
0	11375	3834.204676157881	4
0	11376	3835.080158885836	3
0	11382	3835.100770621624	4
0	11383	3835.207448287074	3
0	11391	3836.236714090085	4
0	11393	3837.862820972923	5
0	11394	3838.283937735924	4
0	11403	3840.120588308045	5
0	11404	3840.20060252896	4
0	11413	3845.123308160227	5
0	11414	3845.804532708372	4
0	11420	3846.241156122307	3
0	11426	3846.4571547858	2
0	11432	3847.066316062816	1
0	11437	3847.265016241338	0
0	11446	3850.151026266383	1
0	11448	3853.315264016367	0
0	11481	3861.324786218915	1
0	11482	3861.980983491708	0
0	11491	3867.944810445008	1
0	11495	3874.269566201949	2
0	11503	3878.722426566882	3
0	11504	3878.776205664074	2
0	11511	3881.145379563191	3
0	11512	3881.403619573639	2
0	11517	3881.718762667111	1
0	11523	3881.785191926938	2
0	11527	3882.723258477868	3
0	11529	3882.863047027994	4
0	11531	3883.380364281901	3
0	11542	3885.659037641117	4
0	11544	3886.045626632542	5
0	11545	3886.187603794573	4
0	11552	3887.114171298258	5
0	11555	3889.040087231984	4
0	11562	3891.319829927754	5
0	11564	3891.708674786407	6
0	11567	3892.994376841672	5
0	11575	3895.390082059072	6
0	11576	3895.562508930936	5
0	11582	3896.985224664747	6
0	11586	3899.14123561188	5
0	11594	3900.74590881694	6
0	11595	3901.924965389613	5
0	11602	3903.251744201152	6
0	11603	3903.347740057468	5
0	11610	3905.442252350099	4
0	11619	3906.558515284747	5
0	11623	3908.435860056098	6
0	11625	3910.933031539244	7
0	11626	3911.357040612556	6
0	11633	3913.069495488558	7
0	11634	3914.480106106854	6
0	11640	3917.120110618147	5
0	11646	3917.559651210076	6
0	11647	3919.215914698092	5
0	11652	3919.97993313729	4
0	11662	3922.937989994844	5
0	11667	3923.6820768777	6
0	11669	3924.213518102391	7
0	11672	3925.528230343104	6
0	11678	3925.770962915386	5
0	11683	3927.831128110874	4
0	11691	3929.543927390607	5
0	11692	3929.790595877243	4
0	11697	3930.225038605202	3
0	11703	3930.72250113567	4
0	11705	3930.966119863637	5
0	11706	3930.968791505553	4
0	11713	3931.453255448237	5
0	11715	3935.474021439357	6
0	11719	3936.860196342255	7
0	11722	3938.440576351696	6
0	11727	3939.440898020457	5
0	11737	3942.425923296113	4
0	11744	3942.918265196706	5
0	11745	3943.9255875502	4
0	11752	3946.99308775705	3
0	11757	3947.156504558485	2
0	11763	3947.964537520562	1
0	11772	3953.523101354081	0
0	11786	3960.421429361203	1
0	11790	3963.608510760733	0
0	11821	3969.801361894189	1
0	11823	3969.820909007189	2
0	11824	3971.442386621163	1
0	11832	3975.839633521926	0
0	11838	3979.186088571665	1
0	11839	3982.07915384061	0
0	11851	3984.704322288234	1
0	11852	3985.587736837152	0
0	11869	3989.21968766669	1
0	11871	3989.716657560036	2
0	11873	3990.177636130954	3
0	11874	3990.801756173754	2
0	11881	3993.161634397086	1
0	11889	3994.340171280109	2
0	11892	3998.288584991099	1
0	11897	3998.546685905927	0
0	11915	4000.275175974749	1
0	11916	4002.114855762857	0
0	11926	4009.964906453319	1
0	11931	4013.008446550536	0
0	11948	4016.581745586101	1
0	11949	4016.748789760075	0
0	11955	4017.439201129279	1
0	11958	4018.305624254194	2
0	11959	4019.005421538983	1
0	11964	4019.423319509245	0
0	11977	4024.035995444328	1
0	11978	4027.172494121413	0
0	11994	4039.217771841894	1
0	11995	4040.002683223763	0
0	12012	4044.079761714595	1
0	12014	4044.746053659203	0
0	12035	4054.772323704061	1
0	12039	4060.602458100025	2
0	12041	4061.654183065087	3
0	12045	4063.960667350484	4
0	12049	4065.127351778446	5
0	12051	4065.495319056177	6
0	12054	4068.252536392655	5
0	12060	4068.82078226524	4
0	12066	4069.967618137111	5
0	12068	4070.167930033036	6
0	12069	4070.330233463042	5
0	12076	4071.650637142193	6
0	12078	4071.802134463276	7
0	12079	4072.615558667176	6
0	12085	4076.191950957977	5
0	12092	4078.153444709694	6
0	12096	4079.823894560438	5
0	12103	4080.577646138071	6
0	12106	4081.568651067583	5
0	12120	4085.962802163468	4
0	12126	4087.552049091311	3
0	12132	4088.58306479686	2
0	12137	4088.86218822354	1
0	12142	4092.123074909037	0
0	12153	4094.127499629717	1
0	12158	4100.178714165991	2
0	12160	4101.43907928266	1
0	12166	4102.372789755188	2
0	12167	4102.601720086205	1
0	12174	4103.021151401177	0
0	12182	4105.996053841458	1
0	12186	4106.941717161761	2
0	12187	4107.16499149054	1
0	12196	4109.06311416578	2
0	12197	4110.045447276932	1
0	12204	4111.86672294293	0
0	12220	4115.198899456453	1
0	12222	4115.608939793902	2
0	12223	4115.913982744336	1
0	12230	4119.56340701196	0
0	12236	4120.88532313732	1
0	12238	4121.428793324018	0
0	12253	4125.239504970171	1
0	12254	4127.640634260405	0
0	12268	4132.128057395578	1
0	12269	4132.171139677986	0
0	12281	4133.747154521386	1
0	12283	4134.557438400637	2
0	12286	4137.346738412587	1
0	12291	4137.445079168537	0
0	12297	4138.508612059375	1
0	12299	4138.610685414889	2
0	12302	4141.055170707637	1
0	12307	4141.120773691793	0
0	12314	4141.513516118973	1
0	12316	4145.110834197476	0
0	12334	4147.711470237085	1
0	12336	4147.843619572871	2
0	12337	4148.624274279111	1
0	12342	4149.530113232918	0
0	12354	4150.81851714358	1
0	12355	4150.913985269358	0
0	12388	4159.992603188536	1
0	12392	4160.847306710525	2
0	12394	4163.063497985697	3
0	12396	4164.68641590239	4
0	12397	4167.563599534044	3
0	12405	4175.42642956337	2
0	12410	4175.450449819948	1
0	12415	4177.133556638258	0
0	12424	4177.53575058222	1
0	12427	4178.617619803533	0
0	12433	4180.454381073498	1
0	12439	4184.684950618981	0
0	12446	4185.867797866314	1
0	12447	4186.308388450626	0
0	12473	4190.047102753844	1
0	12477	4191.029957079589	2
0	12479	4192.728176214761	3
0	12484	4196.675809944228	2
0	12490	4199.750995614385	1
0	12495	4200.010149991282	0
0	12521	4211.0606937214	1
0	12523	4211.531970524204	2
0	12524	4211.772647086424	1
0	12529	4212.075986695028	0
0	12541	4213.630285649584	1
0	12542	4214.394157233708	0
0	12554	4215.850825913946	1
0	12557	4217.630059345895	0
0	12586	4226.074562538311	1
0	12587	4226.110509604287	0
0	12603	4226.956010453316	1
0	12607	4228.689278419046	0
0	12623	4237.184127921254	1
0	12624	4237.30887589613	0
0	12642	4240.624286579165	1
0	12643	4240.889778451314	0
0	12655	4243.515071557957	1
0	12659	4244.252472118626	2
0	12662	4245.130242807453	1
0	12668	4245.971869964743	0
0	12682	4254.708942875038	1
0	12684	4256.882091614258	2
0	12686	4256.974971389009	3
0	12688	4261.816290704623	4
0	12691	4262.235340793703	3
0	12697	4262.249893497308	4
0	12700	4264.344025248827	5
0	12705	4269.847745534317	6
0	12708	4271.528131819371	5
0	12714	4274.174033285758	6
0	12718	4275.503027961324	7
0	12719	4277.729739950672	6
0	12725	4278.310706569479	7
0	12728	4280.727361816695	8
0	12729	4280.828909306388	7
0	12735	4284.913436882532	6
0	12740	4285.876130008614	5
0	12747	4287.032112489456	4
0	12755	4290.798878623742	3
0	12762	4292.871646516273	4
0	12763	4293.253554355112	3
0	12768	4293.586744125492	2
0	12773	4294.816069766683	1
0	12779	4295.178176846413	2
0	12781	4295.559009622535	3
0	12782	4296.203724287518	2
0	12788	4296.945759157289	3
0	12795	4301.468120895268	2
0	12802	4302.190893092289	1
0	12807	4302.513350575605	0
0	12824	4306.383874587067	1
0	12830	4309.040600620984	2
0	12831	4309.64446454327	1
0	12840	4313.080832995869	0
0	12849	4314.609217465483	1
0	12851	4314.777535117454	2
0	12852	4315.37353546685	1
0	12857	4315.667264902894	0
0	12872	4317.376056548445	1
0	12874	4317.924074334154	0
0	12882	4321.882197588935	1
0	12884	4323.237738572142	2
0	12885	4329.51983185423	1
0	12892	4330.110728978203	2
0	12893	4332.272127785355	1
0	12898	4333.699039226672	0
0	12925	4341.97162996122	1
0	12927	4344.770565191386	2
0	12928	4347.684575818945	1
0	12933	4347.764528689591	0
0	12943	4352.310733045215	1
0	12945	4353.363995010378	2
0	12947	4353.541404142108	3
0	12952	4356.327945369315	4
0	12953	4357.818079285091	3
0	12959	4358.363188507459	4
0	12960	4358.679796056635	3
0	12968	4360.182362936077	2
0	12975	4361.609526166036	1
0	12981	4363.063427824811	0
0	12987	4364.725942065962	1
0	12988	4365.168421177471	0
0	13005	4367.672729317373	1
0	13007	4368.459464804442	0
0	13014	4370.487543955624	1
0	13015	4370.648250000766	0
0	13022	4372.314044549039	1
0	13026	4374.178998493215	0
0	13046	4379.381157711391	1
0	13051	4388.208701922394	2
0	13052	4388.352344605922	1
0	13060	4389.267058579657	0
0	13068	4391.552139652147	1
0	13069	4393.894922695745	0
0	13076	4396.948598692405	1
0	13078	4399.185217450266	2
0	13079	4402.356018635316	1
0	13088	4402.713205441001	2
0	13092	4404.864894293621	1
0	13099	4407.230381441861	2
0	13100	4407.44219486251	1
0	13108	4409.251190964757	0
0	13126	4410.554021616183	1
0	13127	4412.115148541859	0
0	13147	4415.514897215934	1
0	13151	4418.921150110212	2
0	13153	4418.991084111799	3
0	13155	4419.738622039391	4
0	13156	4422.572703688786	3
0	13162	4423.227755553321	4
0	13163	4423.562011421977	3
0	13168	4425.468531213479	2
0	13173	4425.852760353903	1
0	13180	4426.687954357936	2
0	13181	4427.037559832557	1
0	13188	4429.030606664817	2
0	13191	4432.690777662292	1
0	13200	4435.341670479735	2
0	13206	4438.454623936284	1
0	13213	4439.903561959768	0
0	13254	4451.31274843412	1
0	13255	4452.218294912068	0
0	13275	4458.823039249655	1
0	13279	4461.865415289898	2
0	13285	4470.623775180851	3
0	13286	4471.597136284167	2
0	13293	4472.440137639196	3
0	13294	4472.882415114834	2
0	13300	4473.291671756669	3
0	13301	4473.854512181776	2
0	13306	4474.380396826226	1
0	13314	4475.458991748	0
0	13332	4480.421727750308	1
0	13333	4480.665955213558	0
0	13341	4482.58084002166	1
0	13343	4483.549429668321	0
0	13361	4486.731117108516	1
0	13362	4488.279471800743	0
0	13373	4491.775416575255	1
0	13374	4494.127798134089	0
0	13390	4498.828979877351	1
0	13391	4499.476271351099	0
0	13407	4508.038319171175	1
0	13409	4508.206406115149	2
0	13412	4510.762087752644	1
0	13420	4514.914197938912	2
0	13426	4516.35651686947	3
0	13428	4516.942041067348	4
0	13429	4518.020286212662	3
0	13434	4518.32298546035	2
0	13440	4518.920857956162	3
0	13442	4520.089904619064	2
0	13450	4521.530558895266	1
0	13455	4522.764974005531	0
0	13476	4527.638637469107	1
0	13479	4531.838260166195	0
0	13500	4534.865766405394	1
0	13503	4535.864566351711	2
0	13505	4536.044867858637	3
0	13507	4536.876919085	4
0	13508	4544.347456737876	3
0	13513	4544.689787365018	2
0	13518	4544.950989760737	1
0	13528	4549.067070586564	2
0	13530	4549.766810730612	3
0	13531	4550.439837819733	2
0	13537	4552.485156390509	3
0	13543	4554.984357769647	2
0	13548	4555.445052326892	1
0	13553	4555.64582193944	0
0	13573	4558.464722024648	1
0	13575	4559.269885166147	2
0	13576	4560.032084918564	1
0	13582	4560.33393147984	2
0	13584	4561.261689824841	1
0	13589	4561.325202898943	0
0	13596	4563.391318044464	1
0	13597	4563.853416756797	0
0	13601	4564.368011629297	1
0	13609	4574.152757813585	0
0	13623	4575.409744787401	1
0	13624	4575.975673132827	0
0	13630	4576.71144426418	1
0	13631	4577.003754147575	0
0	13642	4577.310425615379	1
0	13646	4577.73678371896	0
0	13660	4583.952110192897	1
0	13661	4585.180894711796	0
0	13670	4592.642539158802	1
0	13672	4598.157881325741	2
0	13673	4598.757304263184	1
0	13680	4603.551165196862	0
0	13704	4608.649160180833	1
0	13706	4608.866354674136	2
0	13708	4611.227593728215	3
0	13712	4611.301086343308	4
0	13713	4611.535949774554	3
0	13719	4611.808952958306	4
0	13721	4613.921190405105	5
0	13722	4614.617886568703	4
0	13728	4615.017542697767	3
0	13733	4615.024625116747	2
0	13739	4615.343695280489	1
0	13744	4615.592199412841	0
0	13753	4616.387721375922	1
0	13758	4619.990637391391	2
0	13761	4622.947918823905	1
0	13767	4624.443648182129	2
0	13769	4626.809015598088	1
0	13775	4627.623540834654	2
0	13776	4628.189910095249	1
0	13781	4629.920674897502	0
0	13789	4630.780459669126	1
0	13791	4631.222653541432	0
0	13821	4636.710010034204	1
0	13825	4638.311918955869	0
0	13841	4639.63138280776	1
0	13844	4641.79946424435	0
0	13864	4645.568573896314	1
0	13867	4649.835218996497	0
0	13888	4662.026984759012	1
0	13889	4663.245324399175	0
0	13917	4674.369552472407	1
0	13919	4676.976640164824	2
0	13920	4678.833997448509	1
0	13925	4679.178255658846	0
0	13934	4679.822386981871	1
0	13938	4683.321384008479	0
0	13947	4686.402903348886	1
0	13948	4686.990678459861	0
0	13956	4688.350183527049	1
0	13958	4689.546381690005	0
0	13969	4692.440525195502	1
0	13973	4694.473219338627	2
0	13974	4696.11031081018	1
0	13980	4697.031605049132	2
0	13981	4698.7174248858	1
0	13987	4699.178099006676	2
0	13988	4701.568926863808	1
0	13993	4701.852764472771	0
0	14015	4704.634290610899	1
0	14017	4704.709439368504	2
0	14019	4706.805604771834	3
0	14026	4709.917731463735	2
0	14033	4711.646942423456	3
0	14034	4712.238130924127	2
0	14043	4717.34417798469	1
0	14049	4719.057599089704	2
0	14051	4721.812094837129	1
0	14057	4721.815727728819	2
0	14062	4724.173845801328	1
0	14067	4724.346891247126	0
0	14080	4728.419685793037	1
0	14081	4730.305414019123	0
0	14089	4733.721460450166	1
0	14090	4734.352191225946	0
0	14097	4735.563910738151	1
0	14099	4735.852961511683	2
0	14101	4735.942388081095	3
0	14105	4738.789096877816	4
0	14110	4739.59240422915	3
0	14116	4739.636223011124	4
0	14118	4740.283623872259	3
0	14123	4740.363891245327	2
0	14128	4740.968554829297	1
0	14135	4743.220493138098	0
0	14150	4746.265922702266	1
0	14152	4746.705633242593	0
0	14158	4747.088123377024	1
0	14159	4747.964359601568	0
0	14172	4748.857158605854	1
0	14174	4750.169778142352	0
0	14188	4753.708872462487	1
0	14191	4754.550277424378	0
0	14198	4755.747863299163	1
0	14203	4757.713474646002	0
0	14209	4757.798112354429	1
0	14210	4759.764298692054	0
0	14232	4766.147658703466	1
0	14239	4772.243580055134	0
0	14245	4772.367349611481	1
0	14247	4773.438221647431	2
0	14248	4773.466304384957	1
0	14255	4778.425133793288	0
0	14269	4781.877659157367	1
0	14272	4783.040622543401	0
0	14278	4783.466998571861	1
0	14280	4783.841360113891	2
0	14282	4785.184002630948	3
0	14283	4785.217896330635	2
0	14294	4789.266879041413	3
0	14295	4789.629908109972	2
0	14301	4793.504332357413	1
0	14307	4795.076819515139	0
0	14324	4807.405977134157	1
0	14325	4808.998031641135	0
0	14337	4814.456312547132	1
0	14344	4816.14691458403	0
0	14356	4817.618464815122	1
0	14361	4820.340787974619	0
0	14368	4820.71733328004	1
0	14370	4821.402220109354	2
0	14371	4821.870525606988	1
0	14376	4822.262200074831	0
0	14388	4823.523761646814	1
0	14389	4825.60930002037	0
0	14401	4829.758237917225	1
0	14403	4829.849170449726	2
0	14405	4829.980237676184	3
0	14407	4830.766474035684	2
0	14414	4833.660761580243	1
0	14422	4837.593740621473	0
0	14438	4841.460686114178	1
0	14440	4844.881457478585	2
0	14441	4845.574778412462	1
0	14446	4846.542421893824	0
0	14463	4849.367217760367	1
0	14465	4849.548322929717	2
0	14471	4852.925261780178	1
0	14479	4853.788957429479	0
0	14486	4855.081901034419	1
0	14489	4856.734437151904	0
0	14498	4859.626812688818	1
0	14504	4863.134466844593	0
0	14530	4873.911525016062	1
0	14531	4876.57106009889	0
0	14538	4878.003197932606	1
0	14539	4879.188440640805	0
0	14545	4880.368613745275	1
0	14547	4881.171424588673	0
0	14561	4885.525283752029	1
0	14564	4886.234524515179	0
0	14572	4886.429720279275	1
0	14575	4888.228251062982	2
0	14579	4892.315819124399	3
0	14581	4893.649154041464	4
0	14582	4894.602353236901	3
0	14589	4894.870479851029	4
0	14593	4897.731913685605	5
0	14595	4897.973891213133	6
0	14596	4900.307096822018	5
0	14601	4900.416710858183	4
0	14612	4905.62332281828	5
0	14615	4910.077755221195	4
0	14620	4910.281943210618	3
0	14625	4910.327658214393	2
0	14630	4910.373387750937	1
0	14638	4911.66593064417	0
0	14663	4919.856105328046	1
0	14668	4920.968601089508	0
0	14681	4927.819344969515	1
0	14682	4928.051045666823	0
0	14714	4937.308444894372	1
0	14724	4941.151964769655	2
0	14729	4945.048637344772	1
0	14736	4945.966247584013	0
0	14742	4946.730545605465	1
0	14746	4950.479421762835	2
0	14747	4953.853485891553	1
0	14752	4954.776775194752	0
0	14760	4955.128170114812	1
0	14762	4955.454064969944	0
0	14783	4960.421454576925	1
0	14786	4964.316769077789	0
0	14792	4965.761918273224	1
0	14793	4966.37346676732	0
0	14820	4975.440030781282	1
0	14821	4975.788195262862	0
0	14836	4979.250373384396	1
0	14838	4979.646744205706	2
0	14843	4984.503781903746	1
0	14849	4987.14521276789	0
0	14877	4992.738105722818	1
0	14880	4999.132839396476	2
0	14882	5000.24469088355	3
0	14883	5000.80804490917	2
0	14888	5001.185329608757	1
0	14898	5005.005791192379	0
0	14905	5006.478380305185	1
0	14907	5008.263154849998	2
0	14908	5009.472196115707	1
0	14914	5011.13525336947	0
0	14932	5013.450326826068	1
0	14936	5016.048533046798	2
0	14939	5018.888788200168	1
0	14945	5021.009753088858	0
0	14956	5022.14275475735	1
0	14957	5022.246506705023	0
0	14963	5022.94621749203	1
0	14964	5025.513004620873	0
0	14970	5025.905179822007	1
0	14971	5026.771466857057	0
0	14978	5027.883510428313	1
0	14986	5030.545580460257	2
0	14990	5032.347299039626	3
0	14991	5035.562194389954	2
0	14997	5039.601691230736	1
0	15002	5039.688613165362	0
0	15027	5044.743423218868	1
0	15029	5045.144750108713	2
0	15032	5050.495611119082	1
0	15043	5053.609134782647	0
0	15050	5056.690368310192	1
0	15051	5060.391113197448	0
0	15098	5067.375239856646	1
0	15099	5067.544279493312	0
0	15108	5068.968002264531	1
0	15112	5069.368964736512	0
0	15118	5069.632292672477	1
0	15119	5070.517536553088	0
0	15142	5080.784692876933	1
0	15143	5087.393937049921	0
0	15153	5088.172911423408	1
0	15156	5092.523681431334	0
0	15175	5098.844332120357	1
0	15178	5101.753145247837	0
0	15193	5109.084081445882	1
0	15195	5109.164168683083	2
0	15196	5109.379864749756	1
0	15206	5111.315428946761	0
0	15212	5111.524224535237	1
0	15213	5111.969557061214	0
0	15230	5117.676610652243	1
0	15234	5120.265418001406	0
0	15246	5121.133913113134	1
0	15247	5121.225927757976	0
0	15261	5128.466661672145	1
0	15263	5131.737468149848	2
0	15265	5132.729945232899	3
0	15266	5133.091749350925	2
0	15275	5137.053385395636	3
0	15277	5137.254405173064	4
0	15279	5137.290513196816	5
0	15281	5138.0111481372	6
0	15286	5139.058462277913	5
0	15293	5139.50230316435	6
0	15296	5142.254335483184	5
0	15302	5143.826571603202	6
0	15304	5144.91867734282	7
0	15306	5145.341844929262	6
0	15312	5148.131983253404	7
0	15313	5149.075256960779	6
0	15318	5149.101783215196	5
0	15325	5151.124380214342	4
0	15331	5151.215322378474	5
0	15333	5151.794678962365	6
0	15335	5154.504624661557	5
0	15340	5154.809112294052	4
0	15346	5155.665442749876	5
0	15347	5156.962362216216	4
0	15354	5157.445115394339	5
0	15355	5158.993570122187	4
0	15362	5159.546502716194	3
0	15370	5160.756818652254	2
0	15375	5161.111134464899	1
0	15382	5165.471966457667	2
0	15387	5166.78834982479	3
0	15390	5169.19155487618	2
0	15398	5172.602412685465	1
0	15406	5175.134170653008	2
0	15408	5178.596805009173	1
0	15416	5180.854000665173	2
0	15419	5181.016999141592	3
0	15420	5181.028035874048	2
0	15426	5182.294486123149	1
0	15433	5183.875625422025	0
0	15448	5185.201579921586	1
0	15450	5186.518483778011	2
0	15452	5186.722463986911	3
0	15454	5187.376067106348	4
0	15457	5188.658182609474	3
0	15463	5191.330461635021	2
0	15471	5191.983263404714	3
0	15473	5192.45312968063	4
0	15475	5194.424131252953	5
0	15476	5194.924829490523	4
0	15485	5196.734576581574	3
0	15491	5196.824988117342	4
0	15492	5196.877554058213	3
0	15498	5198.57759069056	2
0	15504	5198.818409155674	3
0	15507	5199.487739895053	4
0	15509	5200.040115912341	5
0	15510	5200.078013516766	4
0	15516	5200.474211183103	5
0	15517	5201.176370572002	4
0	15528	5206.076010332924	5
0	15530	5206.191099057724	6
0	15531	5206.539227456277	5
0	15538	5208.267343940231	4
0	15545	5208.820053634099	5
0	15548	5209.151952737897	6
0	15549	5210.473010118753	5
0	15558	5214.287013814042	6
0	15561	5215.07612434924	7
0	15565	5216.816556707938	8
0	15568	5221.142439575793	7
0	15573	5221.165301868894	6
0	15578	5222.174237322752	5
0	15584	5224.679045217118	6
0	15590	5226.761649573119	5
0	15598	5228.491037387015	4
0	15604	5230.802943573278	5
0	15606	5232.54820630934	6
0	15607	5234.97339834682	5
0	15612	5234.976653246337	4
0	15618	5236.083644326146	3
0	15623	5236.448237047092	2
0	15631	5237.727668427713	3
0	15633	5239.529544646459	4
0	15636	5239.853730116253	3
0	15641	5242.870741934205	2
0	15645	5242.895821383429	3
0	15649	5243.08855828906	4
0	15650	5243.482205890368	3
0	15657	5245.837337088604	2
0	15664	5248.448656809548	3
0	15665	5249.758218998932	2
0	15675	5252.296792143258	1
0	15680	5252.525687940976	0
0	15686	5253.453446710106	1
0	15688	5253.486108022718	2
0	15689	5254.140312265214	1
0	15695	5255.077418550791	2
0	15697	5255.502125928219	1
0	15702	5256.825193109808	0
0	15708	5256.828275554669	1
0	15710	5259.30633173977	2
0	15711	5259.523315859371	1
0	15716	5262.41114201362	0
0	15723	5264.386817876961	1
0	15725	5266.361626400024	0
0	15732	5268.313874006261	1
0	15733	5268.742158167811	0
0	15776	5279.14761730931	1
0	15778	5279.987968818073	2
0	15780	5280.380067794027	3
0	15782	5281.116235294951	4
0	15785	5281.644099396488	3
0	15790	5282.85591169969	2
0	15797	5283.136841625899	1
0	15802	5283.32753422398	0
0	15808	5284.292287649931	1
0	15810	5284.664750023657	2
0	15812	5284.780581556625	3
0	15813	5284.83753256174	2
0	15818	5287.195334400576	1
0	15826	5289.453770421967	0
0	15845	5292.805952676034	1
0	15850	5296.148962319678	0
0	15871	5304.33668789267	1
0	15873	5304.402533336012	2
0	15876	5307.998235614047	1
0	15882	5309.61387212693	2
0	15885	5309.936397622714	1
0	15890	5310.285760263699	0
0	15911	5313.192560316343	1
0	15914	5315.12412187352	2
0	15915	5316.093850669526	1
0	15920	5316.715178542012	0
0	15944	5325.094420492263	1
0	15945	5325.27338241085	0
0	15952	5326.180360078502	1
0	15953	5327.228392669088	0
0	15959	5327.924005967837	1
0	15960	5328.385660577374	0
0	15969	5333.852645827582	1
0	15970	5338.599693446368	0
0	15982	5339.911310695927	1
0	15984	5344.813547225566	2
0	15990	5350.346906942013	3
0	15992	5351.719002955887	4
0	15994	5352.465006654752	5
0	15996	5353.08134730242	6
0	15998	5353.560749436723	7
0	15999	5354.171863193654	6
0	16004	5354.191211953428	5
0	16010	5354.968241821674	4
0	16017	5360.323732233824	3
0	16028	5363.91986228134	2
0	16034	5364.849448740724	3
0	16036	5365.377400798368	2
0	16042	5366.022604546568	3
0	16044	5366.390957799882	2
0	16050	5366.675330119803	1
0	16056	5368.739782112843	0
0	16068	5371.543031125379	1
0	16069	5371.714348014583	0
0	16086	5378.433110631372	1
0	16087	5378.704693879708	0
0	16099	5381.602156726886	1
0	16100	5382.107096690087	0
0	16106	5382.806635121148	1
0	16108	5383.179761527917	2
0	16110	5383.252702068273	3
0	16112	5385.686043096005	2
0	16117	5385.867640685571	1
0	16127	5388.369427755352	2
0	16129	5389.284744209728	1
0	16137	5391.475580957753	0
0	16160	5400.998779311966	1
0	16161	5401.35429547178	0
0	16194	5415.942862636527	1
0	16196	5416.842329209345	2
0	16200	5423.271099956846	3
0	16202	5423.616954433699	4
0	16206	5428.452895951556	3
0	16214	5436.723346217297	2
0	16220	5437.465199666399	3
0	16222	5437.634701822783	4
0	16223	5437.693478464407	3
0	16229	5438.687022595387	2
0	16234	5439.200613109729	1
0	16239	5439.474086031871	0
0	16251	5442.060013448704	1
0	16255	5444.360606797401	0
0	16273	5451.963155324286	1
0	16277	5454.583549728835	2
0	16279	5455.40219787203	3
0	16281	5456.170372565743	4
0	16283	5458.229640311921	5
0	16285	5459.678011330277	6
0	16287	5460.664818848088	7
0	16289	5460.900152347637	8
0	16292	5462.716024151425	7
0	16298	5463.026091279751	6
0	16303	5463.876800404356	5
0	16308	5464.143270522707	4
0	16314	5464.851348309311	5
0	16316	5464.939224679642	6
0	16320	5467.785950388298	5
0	16325	5467.911228346942	4
0	16335	5470.797461388986	5
0	16338	5471.342154386765	4
0	16343	5472.696886414996	3
0	16350	5474.82868961081	4
0	16352	5476.869888957145	3
0	16357	5479.748153483862	2
0	16362	5480.259149276359	1
0	16369	5480.679581010515	2
0	16370	5481.117572998637	1
0	16376	5482.67411277546	2
0	16377	5483.328667320351	1
0	16381	5485.981522088932	2
0	16383	5486.098882567638	3
0	16385	5486.99520340045	4
0	16387	5489.296024562239	5
0	16389	5490.155608900941	6
0	16393	5492.129879295674	7
0	16396	5493.762644737118	6
0	16401	5496.067947545236	5
0	16406	5500.740276041183	4
0	16412	5501.425653648559	3
0	16418	5504.037183346019	4
0	16420	5504.28472759017	5
0	16421	5507.526334953361	4
0	16428	5510.306771290406	3
0	16433	5512.073959756424	2
0	16439	5512.949223917222	3
0	16443	5514.868619451647	2
0	16448	5515.453678137811	1
0	16452	5516.820589632567	2
0	16455	5519.69286290131	1
0	16462	5521.84526069151	0
0	16470	5524.721329866186	1
0	16471	5526.159150695285	0
0	16487	5527.904249946052	1
0	16491	5530.945469465681	0
0	16502	5531.738946376004	1
0	16504	5531.955058739608	2
0	16506	5533.228801338075	1
0	16512	5536.571669630884	0
0	16518	5536.81577464793	1
0	16522	5537.942364171963	0
0	16534	5539.027631170493	1
0	16537	5540.123756959219	2
0	16541	5541.145264031643	1
0	16547	5542.134741901085	0
0	16563	5543.091527745947	1
0	16565	5543.936702010483	2
0	16566	5544.536848373317	1
0	16571	5545.26335126154	0
0	16590	5548.795724148104	1
0	16594	5550.68129692845	2
0	16595	5551.907482813336	1
0	16602	5552.837403936494	2
0	16605	5553.087727839167	3
0	16610	5557.492465591283	2
0	16615	5557.742215937628	1
0	16621	5558.32377418963	0
0	16627	5558.497246605953	1
0	16629	5559.441396857919	0
0	16636	5560.314446415853	1
0	16640	5568.906302780651	2
0	16641	5569.357706893114	1
0	16649	5571.673612582035	2
0	16650	5571.750727881463	1
0	16658	5573.22082773309	2
0	16659	5573.341214652691	1
0	16665	5575.144755359824	0
0	16682	5576.22916944369	1
0	16684	5576.916285350051	2
0	16685	5577.022209807145	1
0	16691	5577.430960429981	0
0	16698	5577.615988171993	1
0	16699	5578.319254988871	0
0	16705	5579.911640794741	1
0	16706	5580.050594990274	0
0	16729	5586.783813836627	1
0	16732	5587.868581477084	0
0	16751	5596.611778864596	1
0	16754	5599.287323784628	0
0	16760	5600.087523542448	1
0	16761	5601.14510402487	0
0	16772	5605.164663379687	1
0	16775	5606.323661665803	0
0	16787	5609.276742428066	1
0	16793	5610.662527571735	2
0	16795	5611.942987188777	3
0	16796	5612.925413823237	2
0	16802	5613.129330262784	3
0	16805	5614.662509548757	4
0	16808	5615.448579281862	3
0	16816	5617.210068402218	4
0	16818	5619.08875159986	3
0	16826	5624.027332655977	2
0	16833	5626.573856452817	1
0	16842	5627.90824350484	2
0	16845	5631.497273641464	3
0	16847	5631.505445059117	4
0	16853	5633.595551476788	5
0	16854	5634.03557111744	4
0	16859	5635.541494966556	3
0	16868	5637.763138789379	2
0	16879	5641.715073556637	1
0	16884	5641.807974198317	0
0	16924	5649.449296513594	1
0	16925	5649.761063038255	0
0	16931	5649.855516903757	1
0	16932	5650.444277450198	0
0	16956	5657.222386363402	1
0	16959	5658.697353693319	0
0	16968	5659.783395132367	1
0	16971	5661.021527521602	0
0	16980	5664.590195458629	1
0	16985	5666.459292928656	2
0	16988	5668.580688145976	1
0	16995	5671.81350675482	2
0	16996	5672.543657883083	1
0	17001	5672.707902032252	0
0	17022	5684.296664096783	1
0	17023	5684.321728688695	0
0	17037	5687.703364204299	1
0	17039	5689.833547816769	0
0	17071	5700.514505621895	1
0	17073	5701.321139876702	2
0	17074	5701.954012533655	1
0	17080	5702.333598361522	2
0	17082	5703.123335251796	3
0	17084	5704.801994375789	2
0	17090	5705.310186151964	1
0	17095	5705.663761961504	0
0	17122	5713.937233583871	1
0	17124	5713.959815882085	2
0	17125	5717.288288909639	1
0	17133	5720.879834320633	2
0	17134	5721.431326553777	1
0	17139	5721.499024611438	0
0	17154	5724.894892678335	1
0	17159	5726.176766493641	2
0	17161	5728.069253040607	1
0	17166	5729.914047405954	0
0	17186	5733.588679826724	1
0	17193	5735.002974232511	2
0	17196	5735.161730159602	1
0	17202	5735.573878781169	2
0	17206	5737.213603571179	1
0	17213	5738.352961177686	0
0	17225	5738.694395555366	1
0	17227	5739.135468318557	2
0	17234	5743.407496029327	1
0	17239	5744.069986103642	0
0	17245	5745.630632692475	1
0	17246	5748.830404313245	0
0	17256	5752.337077296156	1
0	17257	5752.638484856518	0
0	17264	5759.016454249179	1
0	17265	5759.077735539826	0
0	17286	5764.96798349542	1
0	17290	5765.376983179067	2
0	17292	5766.595176711929	3
0	17293	5766.873340090764	2
0	17299	5768.368646185162	1
0	17305	5768.576669486893	2
0	17306	5769.990071386479	1
0	17313	5771.50852729515	0
0	17327	5772.921667932156	1
0	17328	5774.665103545072	0
0	17340	5776.519386640466	1
0	17341	5778.461251032145	0
0	17353	5780.75777625089	1
0	17354	5781.203879109824	0
0	17405	5795.957668198866	1
0	17407	5797.824911313735	2
0	17409	5799.405194954329	3
0	17413	5804.940402575728	4
0	17415	5805.56157153356	5
0	17418	5807.295821481436	4
0	17423	5808.519544800651	3
0	17429	5808.909731950246	4
0	17432	5810.994758219994	3
0	17440	5813.164739420294	2
0	17451	5816.542653783585	1
0	17458	5820.060824853327	0
0	17464	5821.222740553985	1
0	17466	5823.657246736629	0
0	17485	5826.187475855733	1
0	17486	5826.385227425453	0
0	17498	5829.270908136951	1
0	17500	5833.280903366211	0
0	17527	5841.909953268467	1
0	17531	5849.367027459586	2
[...]
4	80049	26319.966482983529	5609.3017465955
4	80066	26324.225879777994	5583.4431619536
4	80091	26331.189083232068	5589.2539033611
4	80233	26373.187656051195	5630.5081846144
4	80257	26376.113567938753	5629.6886470888
4	80268	26380.956693266503	5620.4933007928
4	80309	26402.167769334804	5635.6100356378
4	80316	26404.602022908626	5633.5359278285
4	80321	26407.440924438603	5636.3306744316
4	80328	26409.469986255051	5638.0778208492
4	80339	26413.570664293857	5641.219003496
4	80363	26424.476422647231	5646.569005191
4	80389	26429.670754202217	5643.0529935629
4	80400	26431.523138953937	5616.362522473
4	80454	26444.788265394553	5627.6485405452
4	80463	26449.305125637004	5631.5447859232
4	80479	26455.250388620055	5632.711720956
4	80485	26456.13226065924	5627.219894735
4	80490	26458.674262535923	5627.8397739718
4	80499	26462.578114586325	5626.4400879517
4	80579	26494.698486906895	5657.8959360599
4	80584	26494.706266642097	5653.6308075644
4	80589	26495.356558290327	5649.7461659998
4	80598	26500.800713957409	5642.9972448299
4	80617	26508.286293985224	5643.844864907
4	80850	26578.99102470084	5713.2692221891
4	80859	26580.814327155858	5699.6420630966
4	80864	26581.096671288923	5696.0654220521
4	80870	26582.48049601531	5696.033350046
4	80883	26592.830128393936	5706.227460732
4	80897	26596.208301030832	5694.915223614
4	80932	26608.858969843181	5701.2398745531
4	80963	26620.97795655061	5698.2397533577
4	81008	26637.150600620645	5711.7925599565
4	81021	26646.24037672498	5710.2235645746
4	81054	26653.972889683829	5709.875774364
4	81065	26654.685733727355	5705.7800134149
4	81091	26659.585507534024	5707.5646718723
4	81101	26659.820680056355	5707.6110399392
4	81107	26663.3817776145	5706.5748359819
4	81113	26668.300943583691	5708.4415917941
4	81121	26669.742607130097	5708.9677200063
4	81140	26673.405088906513	5705.9912267558
4	81148	26678.991599826319	5703.1008715299
4	81153	26683.153485107275	5679.8624027344
4	81166	26687.752443872105	5680.6169422805
4	81205	26693.175019402933	5685.3913704465
4	81213	26693.454078526337	5679.7537756025
4	81218	26696.036922842786	5673.2865947895
4	81231	26703.478461345292	5680.7073207635
4	81378	26750.034582846484	5724.0372255567
4	81387	26760.133733344012	5726.6140751486
4	81399	26762.104930117863	5718.0901106909
4	81455	26782.734754252921	5731.7585743922
4	81578	26822.645670486413	5770.9860141527
4	81584	26825.719160845897	5754.8760528212
4	81589	26826.086263433846	5751.8305196963
4	81599	26829.161103202889	5750.4739270462
4	81616	26833.577650070071	5747.3877850096
4	81644	26841.975207466564	5754.0034356188
4	81660	26848.08456498183	5756.4823103342
4	81669	26852.055982884624	5760.3408523481
4	81728	26871.5265882022	5778.136493376
4	81743	26873.955518806486	5764.2715753564
4	81755	26876.623734801308	5764.4620450031
4	81761	26882.222166647543	5767.8375070488
4	81766	26883.721957964824	5763.3476104655
4	81777	26885.294038226882	5761.0065465416
4	81822	26899.945719295187	5773.2604757432
4	81827	26900.475465364091	5772.6841214079
4	81835	26905.518581552019	5769.0447962908
4	81846	26909.636046165295	5773.0580708984
4	81853	26910.998689384126	5764.9525647719
4	81858	26913.219279776512	5765.8345772457
4	81868	26916.797148971346	5767.2494536612
4	81887	26919.694680359076	5763.9432723203
4	81942	26932.621832764687	5775.5965956902
4	81969	26941.265273765811	5779.4117436394
4	81974	26946.602639201045	5779.4995795115
4	81980	26949.342243230458	5781.6578159772
4	81985	26950.6394387162	5773.5887506478
4	81992	26959.233645138799	5772.6939634835
4	82010	26970.926308866527	5781.3775858575
4	82131	27004.311232017508	5812.6399905775
4	82138	27005.240445852167	5811.4654782427
4	82295	27049.556851829523	5821.4803737312
4	82300	27049.821599568129	5820.4741213585
4	82305	27051.542364209763	5821.4134799294
4	82316	27056.385148450835	5825.5983234995
4	82328	27058.575461734199	5823.1849865785
4	82338	27060.845533106111	5821.9532177558
4	82366	27067.148812765094	5824.6836656688
4	82383	27073.450460545404	5824.2878521679
4	82392	27076.20116874635	5814.7820414228
4	82410	27080.809466524491	5804.1177321091
4	82424	27086.323476864578	5794.7617990164
4	82463	27096.832583639576	5803.4778608451
4	82470	27097.220916982881	5786.0671967014
4	82495	27100.969204739572	5787.9589750494
4	82513	27103.448105374171	5787.5411591669
4	82520	27106.026651355702	5787.1657971494
4	82528	27109.212607953851	5786.2306704381
4	82540	27118.03169164679	5793.0152913348
4	82564	27121.565683145378	5796.2136016229
4	82580	27125.98843855105	5795.3491727897
4	82603	27133.086033494481	5792.5571750076
4	82638	27140.496516097521	5771.8687194676
4	82659	27147.627816774305	5767.634720787
4	82678	27157.881519154107	5775.0805277699
4	82739	27173.606436903642	5786.1988936926
4	82749	27176.700819063069	5786.1941983143
4	82772	27184.294034817232	5792.7492869272
4	82792	27189.265941394916	5795.2644293576
4	82828	27206.842540237312	5809.9183941633
4	82907	27240.345173159639	5842.681068422
4	82915	27246.135984324652	5843.0706674094
4	82933	27254.373034807969	5850.7898298331
4	82956	27257.724181625716	5853.7392339234
4	82963	27261.523594532494	5857.1087770774
4	82968	27261.67671368631	5849.5744399246
4	82978	27267.877029641937	5854.8241034074
4	82985	27268.945379809301	5844.7410262454
4	83047	27298.500899016049	5873.991149443
4	83074	27305.062404387599	5873.9153416775
4	83120	27314.011669764736	5882.2365905646
4	83125	27316.355647739343	5876.8180485547
4	83130	27317.548035615815	5871.6835035297
4	83146	27327.353300858518	5877.978947056
4	83313	27392.005175547846	5941.6762219606
4	83318	27392.559175608269	5930.8955353528
4	83330	27397.868467261892	5935.8657057978
4	83384	27409.347856611165	5942.8945619574
4	83413	27416.060082194117	5936.5146825052
4	83424	27419.177707017139	5938.0447874124
4	83437	27420.228361011222	5934.2150110027
4	83446	27423.342926389082	5929.4314029283
4	83699	27511.737556218476	6014.3404775715
4	83706	27513.171349880561	6012.9778303701
4	83715	27518.713887647121	6016.9690988479
4	83726	27520.642287536835	6017.6504940306
4	83739	27532.984169918114	6027.3994092225
4	83766	27542.323971099279	6026.5219811016
4	83850	27567.584317784647	6048.3755215221
4	83884	27591.470166966867	6061.493329759
4	83897	27595.967805105305	6056.2242702467
4	83931	27617.354919814793	6049.3440501659
4	83941	27622.149237619707	6051.8923405474
4	83953	27625.861348353132	6051.1794922013
4	83958	27625.989086430618	6045.7820515945
4	83969	27630.363305308138	6047.7769735205
4	83999	27637.500743426848	6049.3771503688
4	84020	27640.278523174099	6043.9487532332
4	84027	27642.540028183438	6044.9239261772
4	84035	27647.648371593499	6044.7970874474
4	84040	27650.329846132238	6036.2569154392
4	84049	27659.515290087863	6043.7513453297
4	84060	27665.438272793201	6047.7370687057
4	84069	27667.47140230284	6040.3354392752
4	84086	27671.198364544962	6043.9736792855
4	84091	27676.71521493295	6046.8515218386
4	84105	27684.588022492748	6054.4829746048
4	84126	27687.670769954323	6057.4886328673
4	84138	27691.11576900892	6058.8189399101
4	84160	27700.866182163756	6067.3868122546
4	84259	27724.358661980626	6083.7818085039
4	84267	27726.435993450302	6075.1233934931
4	84292	27737.839734777248	6084.1558439818
4	84303	27738.739465198835	6084.3694404958
4	84314	27740.893666636873	6085.4545397844
4	84352	27749.117839116291	6070.5037534408
4	84372	27757.48771933033	6076.5573406473
4	84429	27772.098577977749	6085.0527389418
4	84436	27778.293922493631	6090.6359501364
4	84449	27781.205999199546	6092.1083878155
4	84462	27785.726785153109	6091.2341974369
4	84476	27791.213415671098	6091.9638194476
4	84488	27793.379044881423	6083.0727171447
4	84525	27806.823309279371	6087.2111149058
4	84564	27816.038076002864	6089.840738516
4	84574	27821.596477465393	6090.2033077391
4	84579	27822.247533396964	6077.2744401829
4	84586	27823.220730336088	6074.9295062358
4	84593	27829.736683741706	6073.3975089186
4	84599	27830.381143908086	6057.6935477193
4	84608	27837.600891057629	6060.2794840421
4	84624	27840.845800252743	6058.0717985609
4	84691	27866.634331812518	6071.3263425415
4	84817	27908.148684862808	6110.043948231
4	84826	27910.074314797075	6108.5280642308
4	84841	27915.86144155065	6105.7220005299
4	84860	27920.183829280223	6100.2648846303
4	84883	27925.727265378835	6099.0121389594
4	84983	27966.819146903221	6124.0626971437
4	85008	27975.58945541355	6129.5858428617
4	85013	27975.843513105389	6126.8708024761
4	85018	27977.301828363353	6112.3207482537
4	85029	27981.93867541362	6109.7526612208
4	85049	27993.394030617051	6116.6012580862
4	85054	27996.675982445728	6117.1440274511
4	85059	27998.936761306425	6112.8686281265
4	85066	28000.717216787755	6114.0844211494
4	85079	28004.214689840175	6114.6391915705
4	85143	28020.670853392504	6124.9701323416
4	85148	28020.959132784789	6122.68955665
4	85156	28023.012572500981	6106.0674072822
4	85169	28025.868243922894	6107.4153383009
4	85178	28030.838940927144	6108.3015761295
4	85187	28033.559984977368	6089.0698459049
4	85206	28037.591611216512	6081.2527856014
4	85214	28039.747136861083	6080.570734391
4	85231	28043.768375715736	6062.8617487651
4	85246	28044.788089876192	6058.7448603745
4	85251	28045.421080063343	6048.5282868444
4	85266	28051.737672804762	6049.3376832297
4	85328	28071.367955386879	6065.3479706825
4	85382	28084.739850307268	6070.7127458881
4	85387	28085.068071775948	6067.3596133888
4	85395	28086.323684782328	6060.9972435192
4	85407	28090.168452177393	6059.6990707448
4	85414	28091.077038310681	6043.6547887317
4	85422	28095.380465435263	6047.8161843765
4	85429	28102.121953374185	6047.4461647042
4	85459	28107.528095710297	6036.6713236148
4	85468	28108.739066872175	6036.3460919745
4	85531	28124.695195859144	6040.8526671142
4	85542	28127.057218034833	6035.7689023237
4	85564	28132.699197346274	6028.9045433526
4	85569	28134.825705153458	6018.9299390864
4	85581	28138.01361077892	6014.208141794
4	85610	28142.332413837396	6017.7221274211
4	85618	28147.539822846906	6015.9171895204
4	85629	28151.494422404797	6016.4980154009
4	85639	28155.231469688015	6009.2818464242
4	85648	28158.413177978186	6005.2207382023
4	85804	28198.573344231193	6038.4735130157
4	85809	28199.504523481928	6039.114340846
4	85814	28200.231767865566	6033.5568637101
4	85826	28206.922718622106	6039.3451070789
4	85859	28227.349015311473	6056.5939164697
4	86063	28291.591153633235	6114.5286142447
4	86069	28293.055572479057	6114.2681551172
4	86074	28293.801053607748	6114.8676784964
4	86079	28294.852283648468	6107.9045546229
4	86088	28299.158487040374	6087.4033446436
4	86093	28300.648065862715	6082.2239079448
4	86103	28310.048537168985	6084.1707492186
4	86137	28319.091389955107	6091.3291629551
4	86151	28320.906191168657	6090.3181838358
4	86160	28322.193878536632	6088.6715974749
4	86176	28329.457920644308	6085.7890187361
4	86224	28342.520645972891	6098.2649969519
4	86253	28353.779627975453	6107.4546568964
4	86270	28355.729943642711	6109.0938468484
4	86277	28357.384130843558	6109.0724117902
4	86286	28361.586146485242	6112.4166062511
4	86307	28372.419988580631	6120.7404559539
4	86340	28380.284245770732	6120.7740258674
4	86387	28389.437449346584	6121.5592949611
4	86392	28390.974879713126	6105.4901386295
4	86401	28393.438922234896	6086.8098176807
4	86450	28405.67196168033	6096.4588890206
4	86458	28407.107978940865	6096.8583106909
4	86470	28409.127031025398	6090.3940404275
4	86615	28453.740246532706	6133.0526146678
4	86623	28457.614615460766	6125.8879873109
4	86718	28479.685041708056	6146.8141653983
4	86726	28480.815116174491	6136.730948446
4	86732	28482.528351984129	6130.1893081055
4	86741	28484.545905327492	6130.30294322
4	86766	28497.60729771625	6141.9308323913
4	86879	28540.117414344525	6170.0121124742
4	86890	28541.835306459384	6167.0578225984
4	86895	28542.839997387504	6165.5923441002
4	86903	28545.056837942742	6160.6295246142
4	86915	28545.6727368819	6157.5636724661
4	86926	28551.126761995931	6160.9666641759
4	86947	28561.199128315359	6158.9765438503
4	86975	28575.67714054929	6171.7035470896
4	86980	28575.737168073793	6169.6005624284
4	86985	28576.110447086211	6164.6893276276
4	86994	28579.152220289633	6158.7554385649
4	87110	28626.151981236596	6205.1155993266
4	87122	28627.577115147435	6205.1899924468
4	87153	28632.407491561128	6209.1641928775
4	87158	28632.616754247093	6204.8629747448
4	87164	28633.532942008616	6175.6881725016
4	87177	28637.566541387537	6167.0763649692
4	87218	28648.677197387689	6167.8437488039
4	87233	28655.887563797332	6170.1149512067
4	87265	28671.513415923127	6164.8639518174
4	87276	28674.568047187375	6167.2758252541
4	87281	28675.026649794846	6165.6434543874
4	87291	28677.206682184485	6166.5457759393
4	87336	28693.553403459237	6172.5014942505
4	87345	28694.635060404093	6169.8949792866
4	87350	28697.351773753901	6160.1252488426
4	87365	28706.273181247676	6168.3593452213
4	87402	28720.202007655449	6181.292048812
4	87407	28720.613179543476	6162.2811062465
4	87418	28728.093110739315	6162.2384596803
4	87486	28755.144449123133	6181.8703254802
4	87504	28762.445329908444	6184.5227361736
4	87525	28771.422818977772	6189.0449199406
4	87531	28772.67193200686	6189.7309139086
4	87536	28773.244943029195	6188.4432345859
4	87545	28775.204694672965	6185.697236106
4	87568	28784.85103153759	6192.8246176683
4	87595	28792.640851073126	6185.3911112949
4	87604	28794.489830596946	6182.8720458167
4	87613	28798.643629758581	6174.5913871923
4	87621	28802.390330645939	6175.5528044527
4	87628	28803.934763855171	6174.8434441418
4	87643	28808.641625690287	6171.96280488
4	87662	28815.718568661386	6178.7047805113
4	87699	28828.157803460988	6184.0471727534
4	87712	28831.915905210895	6175.3273107375
4	87737	28840.722189308297	6181.2588141253
4	87903	28885.99585072439	6214.319261784
4	87914	28888.079337253383	6214.9231518129
4	87921	28888.440498146448	6214.9219544709
4	87934	28892.151399549886	6208.4655554423
4	87943	28894.961512341903	6203.0401853627
4	87970	28902.899121444817	6183.8500044029
4	87981	28906.124776855162	6176.3483351136
4	88155	28968.255181170053	6238.2854536344
4	88165	28973.327658982448	6241.0159611216
4	88176	28974.658291226295	6240.888702575
4	88181	28974.815670295543	6239.2006529267
4	88186	28975.682115528561	6227.2138099007
4	88192	28977.313397304133	6220.7904257116
4	88197	28981.482085003036	6223.7868441169
4	88207	28985.422090296077	6225.5192331048
4	88225	28989.473186278625	6225.2234020877
4	88239	28995.550841392813	6229.7539781899
4	88289	29003.278705613839	6237.3878232266
4	88294	29004.481528529555	6238.1606664097
4	88305	29013.987697988739	6241.3556595072
4	88323	29021.458237404581	6247.9898911009
4	88328	29021.706462700122	6248.1562141906
4	88337	29023.415740950631	6243.9297781455
4	88570	29102.751386817551	6307.9857059666
4	88577	29105.999581752968	6296.6951465834
4	88584	29109.292494873764	6279.4969534681
4	88597	29114.494998361828	6280.3992057322
4	88608	29116.240914555412	6279.7363540352
4	88615	29119.3555772455	6278.6301023984
4	88628	29132.229085753341	6289.9973192497
4	88650	29138.105019759067	6285.440239284
4	88659	29139.278861049911	6285.4179767759
4	88742	29155.470466772781	6290.9149996634
4	88747	29155.472939676429	6288.787379439
4	88755	29158.114710709279	6283.3363496516
4	88762	29163.626465343797	6286.4148918942
4	88770	29168.237019910552	6281.8950288888
4	88806	29184.015062298717	6296.7340506925
4	88940	29227.735128982313	6331.1908939667
4	89057	29252.722649032546	6324.7459387351
4	89070	29255.233680672467	6306.217285895
4	89076	29255.725640965453	6304.4201413644
4	89084	29260.452935436026	6294.2010629381
4	89122	29269.618464268354	6300.1228537556
4	89140	29273.854575950862	6276.871152938
4	89147	29274.929920136692	6272.3788636008
4	89152	29275.012722041331	6272.2619253216
4	89170	29279.761209963827	6266.8319028062
4	89223	29298.530288044986	6276.6237171116
4	89228	29299.421879856781	6277.0921637867
4	89238	29310.405511384708	6282.3944599473
4	89306	29323.903366401173	6288.8142850646
4	89311	29327.396563953867	6282.4160290863
4	89316	29329.460076808068	6284.3193410996
4	89325	29334.56736626642	6284.8310903492
4	89344	29339.360179868495	6287.0360541378
4	89351	29342.070490407027	6288.4766625344
4	89363	29343.829595133029	6278.2541704088
4	89370	29344.651501337817	6272.264992944
4	89385	29351.684924959556	6269.1776182637
4	89397	29359.083103318502	6259.0163482733
4	89427	29368.147638882729	6266.1728128924
4	89488	29396.43021306323	6293.8343882964
4	89568	29416.592889092701	6310.0847135955
4	89575	29418.460731456424	6302.2051549787
4	89592	29425.13852889824	6303.9249759988
4	89676	29444.739963266853	6322.6213227741
4	89683	29446.111305446746	6321.63993212
4	89702	29451.219431444789	6326.5008901612
4	89707	29451.993122826533	6320.3290839049
4	89714	29455.48296746907	6323.450714978
4	89727	29470.1279231621	6334.1067146161
4	89745	29476.591111455101	6332.8800083025
4	89752	29480.939953693975	6320.3817506532
4	89762	29482.596689383408	6316.6030508143
4	89771	29488.040471227743	6310.8013284032
4	89805	29493.658893340615	6307.3902121897
4	89814	29494.89811895371	6303.592874902
4	89838	29503.19833324303	6300.0487764822
4	89847	29507.630664146103	6297.0046429658
4	89859	29512.101956887677	6277.4420292167
4	89905	29523.391880464074	6288.4202406223
4	89917	29525.193194614433	6286.5216180933
4	89922	29527.552975866162	6288.540691368
4	89935	29536.436019763729	6292.7253055075
4	89979	29551.247842531651	6303.7551778626
4	89992	29557.30288730755	6300.5671831577
4	90004	29559.327575740069	6291.7763910713
4	90010	29560.133621627192	6290.5200467806
4	90015	29560.812687438706	6290.8922205779
4	90027	29565.690487457267	6282.4099680981
4	90061	29577.555705651413	6293.5061285064
4	90068	29579.101081700067	6293.2496028993
4	90083	29584.078445072693	6293.2788325512
4	90093	29585.712719630349	6294.4445594331
4	90104	29586.995871783725	6295.5082102921
4	90131	29592.109749334674	6285.7559945697
4	90159	29600.313138015409	6293.5964109501
4	90182	29602.803403345047	6291.3438319923
4	90191	29604.043908108704	6292.5216915018
4	90208	29611.354166914242	6295.9940657855
4	90224	29620.50439468453	6303.9798619237
4	90252	29626.201924943094	6303.5015649974
4	90264	29628.872162539515	6301.8593935539
4	90276	29630.604681615571	6303.1161272871
4	90283	29631.615116303594	6303.2677595648
4	90315	29644.585776463093	6315.6743737669
4	90343	29648.431013227135	6309.3283747702
4	90350	29649.047326217994	6306.998741718
4	90370	29656.823943339522	6303.2231969887
4	90421	29672.989820298108	6313.3145199474
4	90432	29674.922980962349	6314.0375257323
4	90455	29684.046086529166	6319.1773217147
4	90804	29789.983171154551	6420.826093429
4	90817	29792.224001045024	6416.2410226093
4	90831	29796.684766969156	6416.7169575865
4	90838	29797.999825187069	6410.1777750868
4	90850	29803.181049894612	6415.2376714855
4	90857	29805.976150641027	6405.2186516282
4	90874	29810.630848033855	6409.3777335043
4	90892	29812.59128348227	6410.5373406249
4	90897	29812.755762308081	6407.2939276153
4	90908	29816.930590569397	6408.7465117196
4	90918	29817.976725487648	6382.3641978974
4	90931	29825.835224609663	6376.6845488875
4	90949	29830.686688967011	6380.7257889396
4	90955	29833.1347777709	6380.9616622614
4	90960	29834.022527603631	6380.4139412228
4	90971	29837.073395137774	6380.9776229865
4	90988	29847.706545485997	6385.2338167409
4	91000	29852.004088794654	6379.4927841391
4	91020	29853.867059436073	6377.5131867966
4	91029	29856.537313271392	6373.4352836484
4	91041	29864.763888171871	6368.6397682131
4	91162	29896.546713019687	6383.223967554
4	91172	29898.22460637465	6382.6778053433
4	91187	29903.096627386087	6384.5143618879
4	91195	29908.265534285863	6388.3164827886
4	91200	29916.47290694651	6377.8532613079
4	91209	29919.312930687663	6378.1910709881
4	91230	29927.466015679346	6384.8365092718
4	91256	29938.387219213029	6392.2296378569
4	91278	29943.628764972841	6386.1577336018
4	91283	29944.088643200375	6382.1321292962
4	91291	29946.723192421532	6373.6379342267
4	91309	29956.706141225035	6378.5062199418
4	91318	29960.372797832043	6381.4320268405
4	91376	29989.70723801003	6408.2091962488
4	91381	29990.205280138763	6403.9022703435
4	91398	29996.357528187802	6396.2961522978

