version 2
run Third-n3-12-20191016-14:53:55-9760
attr configname Third-n3
attr datetime 20191016-14:53:55
attr experiment Third-n3
attr inifile omnetpp.ini
attr iterationvars ""
attr iterationvarsf ""
attr measurement ""
attr network org.omnetpp.queueing.Pizza
attr processid 9760
attr repetition 12
attr replication ""
attr resultdir results
attr runnumber 12
attr seedset 12
param **.PS.maxInventoriedPS 3
param **.U1.interArrivalTime exponential(4s)
param **.U2.interArrivalTime exponential(6s)
param **.PS.serviceTimeForInventoryU1 exponential(1.4s)
param **.PS.serviceTimeForInventoryU2 exponential(1.4s)
param **.PS.serviceTimeDirectU1 exponential(1.8s)
param **.PS.serviceTimeDirectU2 exponential(1.8s)
param **.PS.probabilityProducing 0.8
param **.CS.serviceTimeU1 exponential(2.3s)
param **.CS.serviceTimeU2 exponential(2.3s)

vector 0 Pizza.EntryQueueU1 queueLength:vector ETV
attr interpolationmode sample-hold
attr title "queue length, vector"
vector 1 Pizza.CS queueLength:vector ETV
attr interpolationmode sample-hold
attr title "queue length, vector"
vector 2 Pizza.EntryQueueU2 queueLength:vector ETV
attr interpolationmode sample-hold
attr title "queue length, vector"
vector 3 Pizza.sink lifeTime:vector ETV
attr interpolationmode none
attr title "lifetime of arrived jobs, vector"
attr unit s
vector 4 Pizza.sink lifeTimeU2:vector ETV
attr interpolationmode none
attr title "lifetime of arrived jobs, vector"
attr unit s
0	0	0	0
0	16	6.058772836419	1
0	17	7.347231324444	0
0	23	7.459481980149	1
0	28	12.637321568175	2
0	29	14.581599610948	1
0	37	18.98730771314	0
0	64	29.090735271574	1
0	65	29.456807520852	0
0	82	33.543032490124	1
0	85	33.833921205936	0
0	92	35.13045839036	1
0	94	39.049320383154	2
0	95	42.618440583009	1
0	104	45.973589360506	0
0	118	56.287741343477	1
0	120	57.069680664824	2
0	122	58.320727274285	3
0	123	60.379614209304	2
0	129	63.456427820644	1
0	134	63.504237719885	0
0	164	71.464734764257	1
0	167	72.692410007789	0
0	184	77.999442848313	1
0	187	80.461906704992	0
0	209	87.62406113571	1
0	211	87.876394854254	2
0	212	88.685871270314	1
0	218	90.492460626254	2
0	219	90.532619880346	1
0	225	91.427764680324	2
0	227	91.733000277448	3
0	231	93.606562724239	4
0	232	93.829792597501	3
0	237	96.346897663211	2
0	244	96.741604860941	3
0	248	98.460715875638	4
0	251	101.159239235995	3
0	259	102.055025472936	2
0	264	102.226901085382	1
0	270	102.593237142822	2
0	272	103.424754511081	1
0	282	105.018826170531	2
0	283	106.110533116086	1
0	289	106.992864972208	0
0	318	115.114990047706	1
0	322	117.010656140836	2
0	323	117.611629224561	1
0	329	118.131061487431	0
0	335	118.327533029037	1
0	336	118.32873131333	0
0	345	121.194366957147	1
0	346	121.412564442456	0
0	352	122.537747043359	1
0	355	124.681805023096	2
0	356	124.967750736959	1
0	362	125.270045259742	2
0	367	125.941032527079	3
0	371	129.656565144943	4
0	373	131.027213401831	5
0	374	131.10636876577	4
0	380	131.781110752841	5
0	383	132.649494531212	6
0	384	133.584088700736	5
0	389	134.521461542041	4
0	396	135.38614847401	3
0	402	135.751798883353	4
0	404	136.105543786016	5
0	405	136.315014715987	4
0	414	144.276536745165	3
0	421	145.435391532916	4
0	423	146.236081789147	3
0	429	146.54251957056	4
0	431	148.302853986743	3
0	437	148.622350947631	4
0	439	150.676626159596	3
0	444	150.677597501152	2
0	452	153.03666253328	1
0	458	155.363173324924	2
0	462	157.053180590325	3
0	463	158.362671913347	2
0	469	158.736175829246	3
0	470	159.637771222898	2
0	475	159.66869099477	1
0	479	162.589628771208	2
0	481	166.006958378739	3
0	488	169.777285171243	4
0	490	170.909928979008	5
0	492	171.399155429944	6
0	494	173.570751359839	7
0	495	174.445983439859	6
0	500	174.676765641292	5
0	507	175.517742571281	4
0	512	175.538724694842	3
0	521	177.215808225165	2
0	526	177.87472457181	1
0	531	178.384726154923	0
0	544	182.671799265224	1
0	547	185.14072961212	0
0	575	200.393225875468	1
0	576	202.992740639929	0
0	582	203.421861817645	1
0	585	204.028133666108	0
0	648	232.331848519084	1
0	649	232.967703259179	0
0	659	235.209944748476	1
0	662	237.609729639074	0
0	669	239.844881293842	1
0	670	241.014697415151	0
0	682	245.343777637456	1
0	684	245.892526943055	2
0	687	249.08744145299	1
0	699	253.107405018993	0
0	714	259.149450269574	1
0	717	260.209771720385	0
0	761	271.79475445994	1
0	762	272.014629202374	0
0	784	274.357730986264	1
0	786	275.899075122559	2
0	788	276.523023799119	3
0	789	276.80077679094	2
0	795	277.532152436857	1
0	802	278.511106702196	2
0	804	278.849745700554	3
0	806	279.943277072726	4
0	809	282.82558033599	3
0	816	285.029680447738	4
0	818	285.0418706207	5
0	820	289.293546413868	6
0	823	290.017266621053	5
0	828	290.462016975769	4
0	836	292.600428222565	3
0	843	294.25630408789	4
0	846	297.095291998263	5
0	847	298.024927543321	4
0	853	303.503533982856	3
0	859	303.569872657893	4
0	861	304.80973413571	3
0	868	305.470149864133	4
0	870	305.5259881254	5
0	871	305.882433131595	4
0	878	306.350004438409	5
0	880	306.966813873809	4
0	886	307.200596628304	3
0	894	309.041687282322	4
0	895	311.931161063141	3
0	901	313.650322232759	2
0	907	313.774418730307	3
0	913	315.051481543681	2
0	920	317.753715714283	3
0	922	320.650135470516	2
0	928	322.149576518087	1
0	933	322.396026879073	0
0	945	323.893140777167	1
0	950	326.739225332125	2
0	951	327.954609670512	1
0	959	329.093065571807	2
0	963	332.835721820353	3
0	964	333.253928539601	2
0	971	335.189752902034	1
0	977	335.437638486414	2
0	979	335.546165659372	3
0	981	339.751752731569	2
0	987	342.418585624307	1
0	994	344.046055904084	2
0	996	344.928907386012	3
0	997	346.34076037731	2
0	1005	346.650425991701	3
0	1007	348.139604840856	4
0	1009	349.042276533226	5
0	1013	351.163557990858	6
0	1015	352.18448597225	7
0	1017	352.675871710676	8
0	1019	353.9380194957	9
0	1020	357.574793075165	8
0	1028	361.406863590201	7
0	1034	361.637635609956	8
0	1035	361.844670783033	7
0	1045	363.425521764147	8
0	1047	365.543927067231	9
0	1049	366.982935171435	10
0	1050	367.26060051111	9
0	1056	367.359802476848	10
0	1057	369.523784302039	9
0	1063	371.586179748233	10
0	1065	371.623207808857	11
0	1066	371.979186153503	10
0	1071	372.130336342537	9
0	1079	376.673054164301	8
0	1084	378.215704893034	7
0	1092	382.120780508317	8
0	1094	382.76792645378	7
0	1100	383.917665184047	6
0	1105	384.730657711844	5
0	1110	386.025830881298	4
0	1116	389.081269604963	3
0	1129	397.485145890019	4
0	1130	398.551383591298	3
0	1137	399.285831555422	4
0	1140	402.547237744332	3
0	1146	403.101762093615	4
0	1147	403.107779866431	3
0	1152	403.358012450985	2
0	1158	403.462435865761	3
0	1159	404.215883093388	2
0	1163	404.817595431804	3
0	1165	405.460962182973	4
0	1168	407.470957211263	3
0	1172	408.123363140473	4
0	1174	409.074529450575	5
0	1176	409.564308969646	6
0	1180	411.448437635552	5
0	1185	412.125936848679	4
0	1191	415.722474971088	3
0	1200	421.219320213593	4
0	1201	421.484037267248	3
0	1209	425.888699324432	2
0	1218	428.202312288909	3
0	1220	430.323867980363	4
0	1221	430.378338902118	3
0	1227	433.974286377361	2
0	1233	435.35534475755	3
0	1235	437.308212227357	4
0	1237	437.843354029666	5
0	1238	438.317391809172	4
0	1245	439.376306497886	5
0	1246	439.780350264281	4
0	1251	440.997002396958	3
0	1259	444.854957994154	2
0	1264	445.52683900603	1
0	1270	446.232156779903	2
0	1271	446.266735357108	1
0	1278	446.847269712209	0
0	1295	455.337160652794	1
0	1297	455.65998619375	2
0	1298	456.089786822329	1
0	1306	456.982847091398	2
0	1307	457.380044422447	1
0	1317	460.0960188821	2
0	1318	461.414118835024	1
0	1324	462.094608805654	2
0	1325	462.670794133939	1
0	1330	464.43656037294	0
0	1343	469.179620649577	1
0	1345	471.298226458495	2
0	1346	471.838649143384	1
0	1356	473.531460365793	2
0	1358	474.706331425281	1
0	1364	475.052931328939	0
0	1405	485.076403363391	1
0	1407	486.01199129224	2
0	1409	487.027955493751	3
0	1410	488.191348253497	2
0	1416	488.657046689698	3
0	1420	490.563483766097	4
0	1421	491.385050660359	3
0	1429	492.7092004394	2
0	1435	493.219178322772	1
0	1448	498.028043915727	0
0	1457	498.626239117129	1
0	1459	498.636468987762	2
0	1462	499.776966790555	1
0	1467	500.809962121128	0
0	1473	501.015369745797	1
0	1475	502.494783140453	2
0	1480	504.142992308314	1
0	1486	504.953741410699	0
0	1499	505.404923954864	1
0	1501	506.957462306085	0
0	1508	511.712445981187	1
0	1510	513.211121734578	2
0	1511	513.94119653206	1
0	1518	516.753205360094	0
0	1529	517.76038685756	1
0	1533	518.349846356504	2
0	1537	521.312075630623	3
0	1538	521.316424093721	2
0	1544	522.693302373572	3
0	1548	524.592970753039	2
0	1552	524.779874355694	3
0	1556	527.435211479987	4
0	1558	529.091822328673	5
0	1561	529.830201213712	6
0	1563	530.387186508494	7
0	1570	532.223902972682	6
0	1576	532.401611157619	7
0	1578	534.527236834391	6
0	1582	534.851845023529	7
0	1586	539.083801696895	6
0	1592	539.483441168443	7
0	1594	542.011784505751	6
0	1600	542.026707809387	7
0	1603	545.694952331828	6
0	1610	546.369530760275	7
0	1611	546.499822658158	6
0	1617	549.483070078693	5
0	1622	550.120143185636	4
0	1626	550.216060416197	5
0	1629	552.342256247733	4
0	1634	553.902549820476	3
0	1640	555.754872990099	4
0	1647	556.981743600047	5
0	1648	557.998092735323	4
0	1654	558.094491761137	5
0	1656	558.271660773802	6
0	1658	558.676386877996	7
0	1659	559.356640553199	6
0	1663	560.9248897514	7
0	1665	562.391428301658	8
0	1675	566.195990640301	9
0	1677	566.504494599565	10
0	1678	566.596526594865	9
0	1683	567.839063684473	8
0	1687	569.337989247271	9
0	1692	571.121567593761	10
0	1694	571.670620339303	11
0	1695	572.090148027078	10
0	1703	572.69944153715	11
0	1705	573.876951838576	12
0	1706	577.318892723355	11
0	1712	579.04509195896	12
0	1716	579.6852198357	13
0	1717	579.853154656361	12
0	1724	583.242504246774	11
0	1731	586.122797693455	10
0	1736	587.504175368836	9
0	1744	591.493702007743	10
0	1745	592.46365027827	9
0	1750	593.280285519347	8
0	1758	595.359544942612	7
0	1763	595.470660409624	6
0	1768	597.658848244536	5
0	1773	599.618800870317	4
0	1780	602.426260292635	3
0	1790	606.951262160505	4
0	1792	607.912414062369	3
0	1797	608.615871815789	2
0	1802	608.769865778436	1
0	1813	609.919403071786	2
0	1814	611.897461163665	1
0	1822	614.110695670779	0
0	1831	617.885518752348	1
0	1833	618.609764000979	2
0	1834	621.823444891642	1
0	1839	621.932240004933	0
0	1857	631.83929836138	1
0	1858	633.148158656486	0
0	1865	634.336390012467	1
0	1868	635.432512457019	0
0	1912	652.386758720728	1
0	1914	652.789997724653	2
0	1922	661.246174027042	3
0	1925	662.635050168594	2
0	1931	663.201146363593	3
0	1933	666.16392561066	2
0	1939	666.304467234668	3
0	1941	667.211426497535	2
0	1947	668.655044333593	1
0	1954	670.140922974618	0
0	1965	674.387234735354	1
0	1967	674.742140484245	2
0	1972	677.445167289522	1
0	1983	680.008251080989	0
0	1995	682.400777839952	1
0	1999	684.134802743632	2
0	2002	684.863022280694	1
0	2008	685.080373985311	2
0	2012	688.030097128985	3
0	2014	688.511919325744	2
0	2019	688.705501511581	1
0	2024	689.264237961129	0
0	2032	692.599729433423	1
0	2037	696.726645014831	0
0	2064	704.353875056741	1
0	2065	705.078834503506	0
0	2081	706.647073398515	1
0	2082	707.957276772403	0
0	2093	709.131802877967	1
0	2094	709.878797997846	0
0	2106	711.887686069491	1
0	2107	712.157375062248	0
0	2127	722.187598279644	1
0	2142	731.557611205287	2
0	2143	733.029682916662	1
0	2148	734.158542271471	0
0	2168	736.612059832226	1
0	2171	738.386444201947	0
0	2192	747.61203441327	1
0	2196	749.724719492868	2
0	2198	750.84787872284	1
0	2204	753.645111208239	0
0	2216	755.062625355092	1
0	2217	755.606284975634	0
0	2231	763.364805339133	1
0	2233	764.691243747493	2
0	2237	768.037096173538	3
0	2241	769.796541244558	4
0	2243	770.979805256396	5
0	2244	771.512641293907	4
0	2249	772.11359416691	3
0	2258	773.865432340188	4
0	2261	775.495330992991	5
0	2262	777.712533189777	4
0	2268	780.759588023645	3
0	2273	782.32345584959	2
0	2278	783.738664356194	1
0	2284	784.51247219153	2
0	2286	785.330359574624	3
0	2287	785.421737700422	2
0	2291	785.489416405535	3
0	2293	786.65935465349	4
0	2299	793.473959162154	3
0	2310	802.702727751508	4
0	2312	805.086824309064	5
0	2315	807.458434976579	4
0	2323	808.921218049043	3
0	2332	815.392982283691	4
0	2339	817.911475733723	3
0	2348	824.825892935409	4
0	2349	826.748911224415	3
0	2357	830.713678207709	2
0	2363	830.907014548078	3
0	2366	831.926918230842	2
0	2373	833.044629973668	1
0	2381	836.189999583514	0
0	2404	840.225051794295	1
0	2405	840.680548625807	0
0	2424	848.28935351325	1
0	2425	848.602180677764	0
0	2441	852.93402590415	1
0	2446	854.803343157309	2
0	2448	856.662655124935	3
0	2450	861.067200746212	4
0	2451	863.675528404722	3
0	2459	867.973936006555	2
0	2471	883.771174879351	3
0	2472	884.721932156296	2
0	2478	885.052136668091	3
0	2480	885.08093538795	4
0	2481	885.392978194207	3
0	2486	885.465884305239	2
0	2492	886.211192163463	1
0	2502	892.206320906946	2
0	2504	892.435836537097	3
0	2505	892.923528552451	2
0	2509	893.947888525241	3
0	2517	899.508163125133	2
0	2526	903.157030963651	3
0	2528	908.778520141167	4
0	2530	909.584719017623	5
0	2534	910.5014826141	6
0	2535	911.351219349037	5
0	2542	913.865329680223	6
0	2543	914.704406390557	5
0	2548	915.89361759933	4
0	2556	918.244358367114	5
0	2558	921.76281572783	6
0	2559	921.931844443597	5
0	2564	921.932867283418	4
0	2569	922.014787622325	3
0	2576	922.938197559627	4
0	2580	925.457180107186	5
0	2582	926.375050156697	6
0	2584	927.222493727944	7
0	2585	927.39609207995	6
0	2597	931.160011145403	7
0	2598	931.336588057988	6
0	2604	931.533768141701	7
0	2605	931.838576173697	6
0	2612	934.689352602333	5
0	2622	939.229785795664	6
0	2623	940.511497385852	5
0	2627	941.573393672117	6
0	2630	943.09472604298	5
0	2636	945.506325684117	6
0	2639	946.595913441146	5
0	2644	946.952421837862	4
0	2651	949.13771768598	5
0	2656	951.499046607977	4
0	2662	951.715652512529	5
0	2665	953.26215846446	6
0	2667	959.52113121615	5
0	2672	960.857935162321	4
0	2678	961.774709155967	3
0	2684	962.9481333027	4
0	2685	963.082377670718	3
0	2689	963.206455510651	4
0	2693	963.969745777642	5
0	2694	964.567800303548	4
0	2700	966.672476583621	3
0	2705	966.748151300705	2
0	2709	968.126829097633	3
0	2719	973.830125561211	2
0	2724	974.996051296662	1
0	2730	976.066016406842	2
0	2731	976.445919388352	1
0	2737	977.657668139768	2
0	2739	978.280527349767	1
0	2744	979.970749392939	0
0	2748	982.875608104802	1
0	2750	983.341265503733	2
0	2754	985.412129662259	1
0	2760	985.739773532555	0
0	2766	986.111573828719	1
0	2770	990.197684977155	0
0	2792	995.436708137646	1
0	2793	995.8444928492	0
0	2818	1000.087242945135	1
0	2819	1000.442426673146	0
0	2842	1004.401320607066	1
0	2843	1004.914472186503	0
0	2849	1005.353429966947	1
0	2853	1006.953809802696	0
0	2872	1008.315849924835	1
0	2876	1008.723016688508	2
0	2881	1009.979098183423	3
0	2882	1012.242218941506	2
0	2889	1012.950104970015	3
0	2890	1013.119137841003	2
0	2895	1013.498735690552	1
0	2903	1015.048291927191	0
0	2909	1015.159469321493	1
0	2914	1016.046601525943	0
0	2927	1018.200693027069	1
0	2930	1020.17552042009	0
0	2936	1021.546059143883	1
0	2937	1023.708046395825	0
0	2962	1029.832014397618	1
0	2966	1033.020455130738	2
0	2967	1034.073190971581	1
0	2972	1034.562775803044	0
0	3026	1051.376169108149	1
0	3029	1053.550556292137	0
0	3049	1058.784044808411	1
0	3055	1065.613436446658	2
0	3056	1069.104273957165	1
0	3062	1069.657022731982	0
0	3085	1075.126746180431	1
0	3087	1075.839320945431	0
0	3129	1092.163347202833	1
0	3132	1092.946100859408	2
0	3133	1094.838980765084	1
0	3140	1096.307899426357	2
0	3141	1097.134231503499	1
0	3146	1098.469000261972	0
0	3153	1098.992818138786	1
0	3155	1102.006868507087	0
0	3162	1104.034401324001	1
0	3163	1104.588785572884	0
0	3182	1110.629412097995	1
0	3186	1111.952803705112	2
0	3187	1112.202998242905	1
0	3193	1114.421747476291	2
0	3195	1115.296525233545	1
0	3201	1116.453820410982	0
0	3226	1123.013587364465	1
0	3227	1124.284601032313	0
0	3235	1126.517664523338	1
0	3236	1129.195552445854	0
0	3242	1129.328361366573	1
0	3244	1133.101804149493	0
0	3292	1150.961527406696	1
0	3293	1151.014935196851	0
0	3310	1158.102069314798	1
0	3316	1160.776163793233	2
0	3318	1161.304908673253	3
0	3321	1162.201948667527	2
0	3328	1164.448828616567	1
0	3335	1165.064392056762	2
0	3337	1168.229009335244	1
0	3343	1168.638307341194	2
0	3347	1169.558349661557	3
0	3348	1174.10006640557	2
0	3355	1174.709844246507	3
0	3357	1175.328273730669	4
0	3358	1175.406620187393	3
0	3363	1176.245491895085	2
0	3369	1178.387445582669	3
0	3370	1178.524206710306	2
0	3377	1179.868340599135	1
0	3381	1181.678681522689	2
0	3385	1184.014811462839	3
0	3386	1184.877969643725	2
0	3391	1186.909000781951	1
0	3395	1188.28914282126	2
0	3409	1195.302225851774	1
0	3414	1195.803187913459	0
0	3421	1198.362962752796	1
0	3424	1200.325520300395	2
0	3426	1200.652423395972	3
0	3428	1200.826047343854	4
0	3430	1202.587998184985	5
0	3431	1202.734177994743	4
0	3437	1208.971499700806	3
0	3442	1209.533325993255	2
0	3448	1210.45040384133	3
0	3449	1211.699661040571	2
0	3457	1217.159251242367	1
0	3464	1221.703902420514	0
0	3479	1228.647389341499	1
0	3481	1228.662703488399	2
0	3483	1230.409044518622	3
0	3485	1230.667207907468	4
0	3489	1232.238513656632	5
0	3492	1232.311986173023	4
0	3499	1233.056150784973	3
0	3506	1233.839916961654	4
0	3507	1234.572819493372	3
0	3513	1236.287051479789	2
0	3518	1236.544123954492	1
0	3523	1237.29262423003	0
0	3531	1240.224031135988	1
0	3533	1241.206854808967	2
0	3539	1243.285618598346	1
0	3544	1245.273112640399	0
0	3561	1249.824370393371	1
0	3565	1250.185250011679	2
0	3566	1250.53353131984	1
0	3571	1251.363933979137	0
0	3577	1255.177653067205	1
0	3578	1258.739341880497	0
0	3622	1272.769345597029	1
0	3626	1274.967338870887	2
0	3628	1275.209284677614	1
0	3634	1275.612875911678	2
0	3645	1286.727094258225	3
0	3646	1288.425851938952	2
0	3651	1288.572917604375	1
0	3657	1290.147300756607	0
0	3694	1307.005166685502	1
0	3698	1307.686076149622	2
0	3700	1308.225040432146	3
0	3705	1311.055556895269	2
0	3714	1312.658241783008	3
0	3717	1314.854349682117	2
0	3722	1314.96195222612	1
0	3728	1315.248599667661	2
0	3729	1315.657565070523	1
0	3734	1315.686127172683	0
0	3752	1319.353804615304	1
0	3756	1320.701068003845	2
0	3763	1326.556503510827	3
0	3766	1328.857674181211	2
0	3774	1331.213112098349	1
0	3779	1331.470802247189	0
0	3786	1331.872563790215	1
0	3787	1332.26676489284	0
0	3803	1336.595223152182	1
0	3812	1342.477975956465	0
0	3834	1354.0060015979	1
0	3841	1357.833138442391	0
0	3847	1358.002894516717	1
0	3848	1359.326664983625	0
0	3870	1365.276490545895	1
0	3875	1366.126988335699	0
0	3899	1371.372004706414	1
0	3901	1372.142360184529	2
0	3902	1374.048109585359	1
0	3909	1374.981633009446	0
0	3921	1375.856504332905	1
0	3923	1376.410232295093	2
0	3924	1377.017880155183	1
0	3931	1377.763851865827	0
0	3959	1384.939762818546	1
0	3962	1386.360006217503	0
0	3970	1388.955402152278	1
0	3974	1390.407428017847	2
0	3975	1390.950858249753	1
0	3982	1391.921963235767	2
0	3983	1396.018532721519	1
0	3991	1397.58846911512	0
0	3999	1398.822312342761	1
0	4000	1399.041756746557	0
0	4014	1401.711866818133	1
0	4018	1404.389840930832	2
0	4026	1406.66837802101	3
0	4030	1407.692741591032	2
0	4035	1408.263840286311	1
0	4042	1409.691841193443	2
0	4045	1410.798405394397	3
0	4046	1411.655769130423	2
0	4051	1412.471760393825	1
0	4057	1412.931950832535	0
0	4067	1414.438203424728	1
0	4070	1415.519142092174	2
0	4071	1416.244344982183	1
0	4076	1416.29738221462	0
0	4080	1417.385482202	1
0	4082	1417.423590086055	2
0	4087	1420.084159542698	1
0	4093	1421.507190484341	2
0	4095	1422.371173349555	3
0	4099	1424.804771756965	4
0	4101	1424.829869677481	5
0	4102	1425.029131256438	4
0	4110	1430.426981994671	3
0	4119	1432.474882729981	4
0	4122	1434.077434570324	3
0	4129	1435.442211042221	4
0	4131	1436.552509609767	5
0	4132	1436.748102757076	4
0	4137	1439.043972055443	3
0	4143	1440.148130681259	2
0	4148	1440.631798976474	1
0	4153	1440.728984251641	0
0	4160	1442.603992946921	1
0	4161	1444.080151290934	0
0	4169	1445.163030190162	1
0	4170	1445.20207854166	0
0	4181	1447.088406646505	1
0	4182	1447.615209091582	0
0	4186	1448.243910580769	1
0	4191	1450.566124823556	0
0	4195	1454.259066761721	1
0	4202	1459.462031540638	0
0	4227	1465.321588599819	1
0	4229	1467.1974481585	2
0	4235	1478.084691230817	3
0	4239	1478.918967653879	4
0	4240	1479.712154400121	3
0	4246	1482.297746650807	4
0	4248	1482.764223836165	5
0	4250	1483.774874982361	6
0	4251	1483.992456006992	5
0	4257	1485.504833327446	4
0	4265	1487.095856960892	5
0	4267	1488.253004299072	6
0	4269	1488.420978330941	7
0	4271	1490.005292428396	8
0	4277	1494.384177676401	9
0	4278	1495.133207945398	8
0	4285	1497.24490075372	9
0	4288	1502.836065297329	8
0	4293	1504.072344444537	7
0	4299	1505.986883140347	8
0	4300	1508.63377322135	7
0	4305	1510.041059168178	6
0	4311	1511.774214918264	5
0	4316	1512.042728488316	4
0	4325	1517.691434901242	3
0	4330	1519.235430149953	2
0	4336	1519.338752530271	3
0	4337	1519.472207104049	2
0	4342	1521.595152312307	1
0	4350	1522.536595457791	2
0	4351	1523.399947493591	1
0	4356	1525.545129583429	0
0	4363	1528.417154720204	1
0	4365	1528.663143572955	2
0	4366	1530.264984641284	1
0	4372	1530.699670550356	0
0	4388	1531.765621430849	1
0	4391	1532.840939110245	0
0	4400	1534.295948981744	1
0	4405	1537.305518838486	0
0	4425	1539.807077781787	1
0	4427	1540.146477202804	2
0	4430	1541.957274470957	1
0	4439	1547.767902219463	2
0	4442	1549.313373600261	1
0	4448	1549.944199947425	0
0	4459	1551.4311741533	1
0	4461	1554.199430536958	0
0	4467	1554.425300000805	1
0	4469	1554.926960191554	0
0	4477	1561.087686939857	1
0	4479	1561.165651304331	2
0	4480	1561.288056807927	1
0	4486	1565.982998559159	0
0	4494	1566.58967596476	1
0	4497	1567.102037357097	2
0	4498	1567.222781129571	1
0	4506	1567.542493252928	2
0	4516	1570.417284603339	3
0	4517	1570.460494312325	2
0	4522	1572.641532611831	1
0	4528	1572.740587826055	2
0	4529	1575.204987830509	1
0	4533	1575.90593820618	2
0	4536	1576.343930285059	1
0	4541	1576.840973814854	0
0	4545	1577.342764192376	1
0	4549	1578.95371198334	0
0	4567	1580.242915953546	1
0	4571	1580.356889659585	2
0	4574	1582.469328301371	3
0	4576	1583.79109679491	2
0	4581	1583.876982440358	1
0	4587	1584.099994700075	2
0	4589	1584.491875721251	3
0	4590	1584.638577339494	2
0	4597	1586.891080917115	3
0	4599	1587.290125529102	4
0	4601	1587.59345169771	5
0	4603	1588.896893545941	6
0	4607	1591.60311621103	7
0	4608	1592.489133543883	6
0	4613	1593.091786910879	5
0	4619	1593.568056675595	4
0	4626	1594.048178260975	5
0	4627	1594.67363148729	4
0	4632	1597.049737161872	3
0	4640	1599.345625698064	4
0	4641	1599.711249111573	3
0	4647	1600.007212909344	4
0	4657	1606.19705225958	5
0	4658	1609.899962934438	4
0	4663	1611.439243404301	3
0	4670	1613.427097012331	4
0	4672	1614.030981716683	3
0	4679	1614.668072692534	4
0	4680	1617.45953955679	3
0	4685	1618.365071674457	2
0	4691	1619.244836628208	3
0	4692	1619.605563653905	2
0	4699	1622.501542761767	1
0	4706	1626.542964398362	0
0	4724	1634.567765396847	1
0	4726	1635.320281577302	2
0	4727	1636.467012634016	1
0	4736	1642.193889335856	0
0	4743	1644.347282841497	1
0	4746	1645.280775391055	0
0	4773	1647.774746834625	1
0	4776	1648.937951889118	0
0	4783	1649.998378086189	1
0	4785	1651.300477796644	2
0	4786	1651.712839513556	1
0	4791	1652.692247893542	0
0	4797	1653.061824205663	1
0	4801	1654.290544562691	0
0	4808	1656.330807426961	1
0	4809	1657.672765905045	0
0	4821	1659.702961698287	1
0	4822	1660.032895050781	0
0	4831	1661.697766588369	1
0	4834	1661.956263064149	0
0	4857	1667.063177979742	1
0	4860	1667.449002865695	2
0	4862	1668.154050444285	3
0	4866	1668.817022002976	2
0	4873	1670.298547920647	1
0	4878	1670.298638087921	0
0	4882	1673.075411311101	1
0	4888	1675.659969625918	0
0	4905	1677.610830102076	1
0	4909	1679.211863588982	0
0	4925	1683.545220698046	1
0	4926	1684.617315892963	0
0	4940	1685.754659653015	1
0	4945	1687.195538313607	2
0	4946	1688.755720820408	1
0	4951	1690.188082821683	0
0	4971	1699.037700890748	1
0	4972	1699.602965314872	0
0	4987	1702.607969855054	1
0	4991	1704.130464736195	2
0	4995	1706.547227700262	3
0	4997	1707.092309906853	4
0	5000	1710.253718062055	3
0	5006	1712.042610515577	2
0	5011	1712.378836837684	1
0	5019	1712.828287818427	0
0	5030	1713.541423553643	1
0	5034	1714.882632639089	0
0	5045	1718.277860909633	1
0	5047	1718.913470571776	0
0	5064	1728.226725148878	1
0	5068	1728.885364246087	2
0	5069	1730.972124391742	1
0	5076	1734.086400957195	2
0	5078	1735.984483380022	3
0	5079	1737.138484604953	2
0	5084	1737.841896475562	1
0	5090	1738.505652767999	0
0	5104	1739.910841066481	1
0	5105	1741.227530958508	0
0	5121	1746.554190791771	1
0	5122	1747.564333295272	0
0	5137	1755.156613630324	1
0	5142	1757.035295568117	0
0	5154	1759.300321096157	1
0	5157	1759.407504219605	2
0	5158	1760.804578831383	1
0	5164	1762.666451999968	0
0	5181	1765.894266086048	1
0	5182	1768.421082173804	0
0	5189	1769.355100395373	1
0	5193	1772.536455985617	2
0	5194	1773.666193322811	1
0	5200	1773.978322197721	2
0	5206	1775.360317512651	3
0	5215	1780.501491823234	2
0	5221	1781.316015788168	1
0	5226	1781.572156336406	0
0	5234	1781.780891640214	1
0	5236	1785.028181312918	0
0	5263	1794.222556691346	1
0	5267	1796.168209719445	2
0	5270	1800.076446160598	1
0	5278	1803.992072659086	2
0	5279	1804.726946148261	1
0	5285	1805.962226144868	0
0	5329	1821.994462571356	1
0	5331	1823.885083029567	2
0	5332	1829.487651257738	1
0	5339	1830.886223681481	2
0	5341	1830.986110775446	3
0	5343	1831.010484438804	4
0	5354	1835.178401470207	3
0	5361	1836.788544340449	4
0	5363	1837.122999476714	5
0	5365	1838.769545271859	6
0	5366	1838.974343034527	5
0	5373	1840.691876095924	6
0	5376	1841.025555589916	5
0	5381	1841.079214085342	4
0	5387	1842.438755461353	3
0	5397	1847.508938554742	2
0	5408	1854.801444574143	1
0	5415	1857.578260928146	0
0	5445	1871.164122538108	1
0	5447	1874.20951399883	2
0	5451	1875.758225255301	3
0	5453	1878.458375244717	4
0	5457	1884.358389601307	5
0	5458	1884.683889548458	4
0	5467	1886.551331277704	3
0	5473	1887.768768433479	2
0	5478	1888.280748771044	1
0	5484	1888.881634871567	0
0	5499	1891.186288458096	1
0	5504	1892.472681516809	0
0	5511	1894.689033896185	1
0	5512	1895.161494126417	0
0	5524	1900.85502840604	1
0	5525	1900.928247575945	0
0	5542	1905.255192635422	1
0	5545	1907.820317932781	0
0	5558	1917.238314868251	1
0	5562	1918.467659716114	2
0	5566	1920.046121095255	3
0	5570	1923.095699815312	4
0	5572	1923.481788289571	5
0	5575	1925.210559390502	4
0	5582	1926.825249187423	5
0	5584	1928.856668626324	6
0	5587	1930.212074103207	7
0	5589	1930.456940544359	8
0	5593	1931.140843718777	9
0	5594	1931.518074877963	8
0	5608	1938.315043920747	7
0	5614	1938.424581114538	8
0	5617	1941.412910903887	7
0	5625	1949.732523642327	6
0	5630	1949.907011502745	5
0	5642	1954.983434408663	4
0	5647	1955.551870317601	3
0	5653	1957.477683060469	2
0	5659	1958.281044940688	1
0	5664	1958.305542064463	0
0	5672	1960.641132477448	1
0	5675	1962.566667195705	0
0	5681	1964.189175176022	1
0	5682	1964.48950294238	0
0	5712	1967.928609632643	1
0	5714	1968.180405253603	2
0	5718	1972.681570606623	1
0	5725	1974.059947412313	2
0	5726	1974.920887096145	1
0	5732	1975.062956502748	2
0	5733	1975.968357209855	1
0	5740	1977.808856106737	2
0	5742	1979.431849960518	3
0	5743	1979.99329514323	2
0	5748	1980.378453833471	1
0	5759	1984.665709573911	2
0	5760	1985.274830348275	1
0	5765	1985.436123684675	0
0	5798	1999.64535696036	1
0	5800	1999.697241350417	2
0	5803	2001.984927616229	1
0	5808	2002.106555461915	0
0	5817	2004.109677676803	1
0	5820	2005.69927501337	2
0	5821	2006.157917717532	1
0	5826	2006.422611525999	0
0	5847	2010.032342841373	1
0	5849	2010.523799265785	2
0	5851	2011.402877967493	3
0	5855	2012.170888771725	4
0	5857	2013.49281666498	5
0	5861	2015.665607540517	6
0	5863	2017.77036104768	5
0	5868	2018.909455583953	4
0	5874	2020.599773663814	3
0	5879	2020.770533659229	2
0	5892	2025.485329187202	3
0	5895	2028.733939869631	2
0	5902	2031.318388122122	3
0	5904	2032.629255637741	2
0	5910	2033.316792580415	3
0	5911	2033.409136826111	2
0	5916	2033.556728895907	1
0	5920	2035.985155303536	2
0	5926	2039.445706043962	1
0	5931	2039.483141682936	0
0	5938	2041.609028713339	1
0	5941	2043.22870674489	0
0	5947	2043.241420925762	1
0	5949	2043.928119543734	0
0	5970	2046.11800293907	1
0	5971	2046.505416069922	0
0	5986	2051.40796926966	1
0	5987	2051.576848106283	0
0	5995	2052.995660823512	1
0	5996	2053.399932509766	0
0	6007	2055.254826161053	1
0	6011	2055.817114853998	0
0	6017	2056.811305310975	1
0	6020	2057.236089616503	2
0	6021	2057.985544035881	1
0	6026	2058.265556318748	0
0	6032	2060.186026795843	1
0	6036	2062.546627697121	2
0	6038	2062.998301616471	3
0	6040	2065.695747296268	2
0	6045	2065.894142842521	1
0	6057	2071.01162577883	2
0	6058	2071.213085255539	1
0	6067	2072.013537998778	2
0	6069	2075.263839276672	3
0	6070	2078.585224833327	2
0	6075	2079.451938862336	1
0	6083	2080.979922764513	0
0	6134	2098.702208503272	1
0	6136	2098.754184381893	2
0	6138	2100.86432765412	3
0	6139	2101.35426753102	2
0	6146	2103.71410807037	3
0	6149	2105.291908797372	2
0	6155	2105.433121920932	3
0	6163	2112.329351086165	2
0	6169	2112.655083188435	3
0	6171	2114.781621164518	2
0	6177	2115.334438472171	3
0	6179	2115.375747365105	4
0	6182	2116.442289796724	5
0	6183	2116.864896832756	4
0	6188	2116.881555970425	3
0	6193	2118.612059719586	2
0	6199	2118.912787134477	3
0	6200	2120.260777287224	2
0	6204	2120.717374885748	3
0	6208	2121.578925134387	2
0	6214	2122.084158072302	3
0	6220	2125.650169334935	2
0	6229	2129.055998071604	1
0	6236	2131.355661871923	2
0	6238	2131.370537000325	3
0	6245	2137.501519106114	2
0	6255	2142.921304983401	1
0	6262	2144.028420228903	2
0	6263	2144.313169170136	1
0	6269	2144.690584826535	2
0	6271	2145.750110123553	3
0	6273	2146.860577968391	4
0	6275	2148.224706739408	5
0	6276	2148.345167639448	4
0	6283	2150.970666325492	3
0	6288	2152.177906251962	2
0	6295	2154.954771941725	1
0	6301	2155.720141380898	2
0	6306	2156.955847183517	3
0	6307	2157.947423517124	2
0	6313	2158.439021664012	1
0	6318	2158.881973385796	0
0	6333	2160.926708836081	1
0	6335	2162.077250062326	2
0	6338	2166.153089972736	1
0	6344	2166.285990940299	2
0	6346	2166.767705549519	3
0	6347	2167.487763065606	2
0	6354	2168.893066592709	1
0	6362	2168.998277950768	2
0	6366	2170.35361741378	3
0	6370	2173.61027906254	4
0	6373	2175.746407339895	3
0	6379	2175.863309631843	4
0	6380	2176.099957660666	3
0	6386	2176.3391454031	4
0	6391	2176.846763951093	3
0	6396	2177.044384634244	2
0	6401	2179.094807983397	1
0	6407	2179.483931265058	2
0	6413	2184.139133163215	1
0	6418	2184.498124605225	0
0	6437	2189.977002305402	1
0	6438	2190.080517111268	0
0	6465	2198.573139297756	1
0	6469	2199.536842033979	2
0	6471	2202.455285685152	3
0	6473	2204.849923372591	4
0	6474	2206.050840251888	3
0	6480	2206.866586991329	4
0	6482	2209.361801778898	3
0	6487	2209.492543593567	2
0	6492	2210.989867274564	1
0	6498	2211.139264782121	2
0	6506	2215.118210914086	1
0	6514	2216.657309294626	0
0	6542	2228.621895215187	1
0	6546	2229.12414980931	2
0	6550	2231.1848083184	3
0	6553	2235.521480651963	2
0	6558	2236.212747603142	1
0	6564	2237.208146487139	0
0	6573	2238.533263887679	1
0	6575	2238.725464318028	2
0	6579	2239.218698758814	3
0	6581	2241.264271638322	2
0	6588	2242.574949952218	3
0	6592	2243.339618500991	2
0	6598	2243.749562688172	1
0	6604	2245.171577828031	0
0	6629	2254.639276813618	1
0	6633	2258.994831503577	2
0	6634	2261.205563412565	1
0	6640	2261.42834322621	0
0	6663	2265.574339889799	1
0	6665	2266.332955943662	2
0	6667	2266.362487573464	3
0	6669	2268.351683663328	4
0	6674	2269.447984540819	3
0	6680	2269.626899109663	2
0	6686	2271.590099363297	1
0	6694	2273.155711174157	2
0	6696	2274.897704370869	3
0	6698	2279.006198560175	4
0	6701	2280.639952135613	3
0	6709	2282.422896165596	2
0	6718	2283.612239103721	3
0	6720	2284.590490255905	2
0	6725	2284.86832037738	1
0	6733	2286.514167197344	2
0	6735	2289.11050908673	1
0	6741	2290.847300936172	2
0	6742	2292.776642967046	1
0	6750	2294.644746049317	2
0	6756	2296.447117694984	3
0	6757	2297.621100419733	2
0	6769	2300.257549751643	1
0	6778	2300.898137419426	2
0	6779	2301.616457068816	1
0	6784	2302.445283190603	0
0	6827	2315.501484343389	1
0	6829	2317.684272432184	2
0	6831	2318.826957515502	3
0	6833	2321.59213018337	4
0	6835	2323.377651091421	5
0	6837	2324.996343566654	6
0	6838	2328.08903538274	5
0	6844	2330.650346596541	4
0	6850	2330.868455797233	5
0	6852	2332.495586550991	6
0	6855	2333.278777087539	7
0	6856	2333.280016735085	6
0	6862	2335.269913874223	5
0	6872	2336.793090148687	4
0	6877	2337.637767753506	3
0	6882	2338.392046564011	2
0	6887	2338.686693907136	1
0	6891	2339.110167785384	2
0	6897	2349.22987186438	1
0	6904	2350.851647722472	2
0	6905	2354.651763000676	1
0	6910	2355.036557655499	0
0	6938	2359.857978280946	1
0	6941	2360.40888361648	0
0	6947	2360.935817250984	1
0	6948	2361.860746765516	0
0	6994	2374.05296883558	1
0	6998	2375.456191212054	2
0	7000	2375.995066028347	3
0	7009	2382.347610618802	2
0	7015	2382.807634751445	1
0	7020	2382.858580072813	0
0	7042	2386.49699038317	1
0	7047	2387.814618088916	0
0	7066	2391.503347038163	1
0	7071	2392.602412045821	0
0	7077	2393.085652964464	1
0	7078	2394.04390015389	0
0	7086	2395.210788381249	1
0	7087	2395.519235849481	0
0	7098	2396.515381045657	1
0	7100	2398.144504993106	2
0	7102	2398.346642899411	3
0	7103	2398.463469022706	2
0	7114	2399.19405224768	3
0	7116	2401.414521264223	4
0	7117	2401.628070517676	3
0	7123	2404.410985714774	2
0	7130	2406.638273445099	3
0	7131	2407.242665724081	2
0	7138	2407.970893549609	3
0	7140	2408.368403468987	4
0	7141	2408.991228904278	3
0	7146	2409.02490426427	2
0	7154	2409.875986250881	3
0	7156	2411.317015499665	2
0	7161	2411.794731930837	1
0	7167	2412.01270908597	2
0	7169	2412.128874910295	1
0	7180	2416.524044138314	2
0	7181	2417.505412073588	1
0	7186	2417.819099586803	0
0	7201	2423.216789646246	1
0	7202	2424.484723715286	0
0	7216	2428.189985558987	1
0	7217	2430.425906258495	0
0	7223	2431.773316181595	1
0	7226	2433.483605426848	2
0	7227	2433.631090446543	1
0	7234	2433.911475450281	0
0	7258	2439.091193132024	1
0	7264	2442.447818936382	0
0	7279	2447.884193119423	1
0	7280	2448.871473250859	0
0	7291	2449.520398016983	1
0	7292	2450.538394971418	0
0	7308	2454.735670575889	1
0	7312	2457.219562704736	2
0	7314	2457.615196906477	3
0	7322	2464.594153561204	2
0	7327	2465.638579722705	1
0	7334	2468.517631635699	0
0	7361	2481.162360125274	1
0	7362	2481.162448331893	0
0	7376	2486.563073295404	1
0	7380	2486.949685234612	2
0	7381	2488.952552887059	1
0	7386	2489.98149978256	0
0	7392	2490.605214619234	1
0	7395	2491.328079618866	0
0	7415	2499.955594317443	1
0	7418	2501.445623953295	2
0	7419	2502.601607674893	1
0	7425	2503.458623241464	0
0	7447	2507.248745210612	1
0	7449	2507.505030842884	2
0	7450	2508.548547360929	1
0	7459	2512.950165943825	2
0	7464	2515.253934166532	1
0	7471	2516.425943136535	0
0	7486	2520.478271530361	1
0	7488	2521.29377888302	2
0	7489	2521.488351303566	1
0	7495	2522.6773130081	0
0	7514	2532.476290255641	1
0	7518	2533.280614012587	2
0	7520	2534.3550213981	3
0	7521	2534.558401002608	2
0	7527	2535.92582296545	1
0	7536	2538.80584593774	2
0	7537	2539.601991942649	1
0	7545	2547.798781169956	0
0	7553	2548.917540941382	1
0	7554	2548.958886581328	0
0	7581	2560.904420790004	1
0	7585	2564.833204134747	2
0	7586	2564.997034141177	1
0	7591	2565.449788110715	0
0	7606	2568.540520207682	1
0	7607	2568.735588436805	0
0	7618	2572.472320036582	1
0	7619	2572.904976659172	0
0	7651	2582.894240104006	1
0	7652	2584.044278502009	0
0	7670	2591.872654967064	1
0	7671	2592.401030909406	0
0	7711	2607.044995181262	1
0	7712	2608.833982905886	0
0	7742	2625.569388840045	1
0	7743	2627.638710983169	0
0	7754	2631.463995692722	1
0	7755	2631.585155945269	0
0	7770	2634.294349647872	1
0	7773	2634.820408511383	0
0	7786	2637.241515654496	1
0	7787	2637.357114511928	0
0	7796	2639.615260426762	1
0	7797	2639.99611826197	0
0	7803	2640.047525447243	1
0	7808	2644.6943769671	2
0	7809	2644.71827701186	1
0	7815	2647.229005088611	0
0	7833	2654.641365617292	1
0	7835	2656.352534000444	0
0	7846	2656.848831285803	1
0	7848	2656.940960436701	2
0	7849	2657.183372364249	1
0	7855	2657.323272735399	2
0	7857	2657.3486372194	1
0	7863	2658.078127416188	2
0	7866	2660.064076439796	3
0	7867	2660.141062386613	2
0	7879	2661.40204395739	1
0	7887	2662.4980306147	0
0	7925	2670.995374016997	1
0	7932	2675.902229048454	2
0	7934	2675.987275113309	3
0	7936	2677.333525945648	4
0	7938	2677.859369446175	3
0	7944	2677.985912574868	4
0	7945	2678.096162884557	3
0	7951	2679.613010316476	4
0	7953	2681.267958481894	3
0	7959	2681.336030639773	4
0	7960	2682.791188505395	3
0	7968	2683.59302847976	2
0	7973	2683.931594402505	1
0	7977	2684.106499160955	2
0	7979	2686.273349882445	3
0	7985	2688.669006582917	4
0	7987	2688.740200268596	5
0	7995	2694.289230683856	6
0	7999	2695.676405062571	7
0	8001	2695.73034989778	8
0	8004	2697.344758340088	9
0	8005	2697.492439046811	8
0	8011	2700.15085081437	9
0	8013	2700.165730923349	10
0	8014	2702.336745865966	9
0	8021	2704.28701242038	8
0	8027	2704.48683668119	9
0	8029	2707.594495249659	10
0	8037	2710.740632775991	9
0	8042	2710.858790930695	8
0	8047	2710.932602481379	7
0	8053	2712.731431910756	6
0	8059	2713.445608777001	7
0	8060	2714.240025890589	6
0	8064	2714.849720719411	7
0	8066	2715.752521880968	8
0	8068	2716.220863764118	9
0	8072	2716.661650078016	10
0	8073	2716.827319470207	9
0	8078	2717.450920833348	8
0	8083	2719.694173132146	7
0	8088	2720.616423042263	6
0	8096	2725.694110398776	7
0	8097	2726.294351154924	6
0	8106	2727.561495404334	5
0	8112	2728.451592107103	4
0	8117	2728.713220638587	3
0	8122	2729.383950649931	2
0	8128	2730.134590581687	3
0	8130	2730.733310438616	2
0	8137	2731.824780265593	1
0	8144	2734.255743198673	0
0	8157	2738.093220328369	1
0	8163	2740.233425832313	0
0	8169	2741.774837387324	1
0	8171	2742.388271463437	2
0	8172	2742.451354173729	1
0	8180	2743.962473990539	2
0	8182	2744.03500471803	3
0	8185	2744.569371423164	2
0	8191	2746.697617888607	3
0	8196	2748.065058813867	2
0	8202	2748.693387005323	3
0	8203	2748.771043513892	2
0	8209	2748.927967344103	3
0	8212	2751.773482694695	4
0	8214	2752.231185879407	3
0	8220	2752.28711336192	2
0	8227	2754.120001150992	1
0	8232	2754.686096064906	0
0	8238	2755.856713978289	1
0	8243	2757.870109577188	2
0	8245	2759.057438005615	1
0	8250	2759.847270391937	0
0	8256	2760.076889625044	1
0	8258	2760.849643368885	2
0	8262	2762.701635609209	3
0	8264	2763.841650504453	4
0	8266	2764.730141291325	3
0	8271	2765.077192305795	2
0	8279	2767.10042904768	3
0	8281	2768.189720740734	2
0	8287	2769.768515020128	3
0	8288	2770.157577471646	2
0	8293	2771.01236510154	1
0	8299	2771.352905951474	2
0	8301	2771.805197083752	1
0	8308	2772.730977788604	0
0	8339	2782.163595161645	1
0	8341	2782.98224743962	2
0	8344	2784.116129126204	1
0	8349	2785.673956585115	0
0	8364	2790.915748520665	1
0	8367	2791.303856105458	0
0	8379	2792.888114620916	1
0	8380	2792.974827394044	0
0	8400	2804.701991521691	1
0	8404	2805.925629395452	0
0	8436	2813.847332469668	1
0	8442	2818.699280857398	2
0	8444	2818.87163674409	3
0	8447	2820.687972488563	2
0	8453	2822.848933917435	1
0	8459	2825.666751955653	0
0	8470	2829.304561446994	1
0	8471	2829.357047324693	0
0	8480	2830.580132022918	1
0	8486	2832.876119931899	0
0	8511	2837.598707509078	1
0	8514	2837.742701402137	0
0	8530	2843.979081375562	1
0	8536	2846.398438609678	0
0	8548	2848.640113249848	1
0	8550	2849.722249909683	2
0	8552	2850.728106158355	3
0	8554	2851.748323051021	4
0	8556	2852.800176423545	5
0	8557	2858.497084648534	4
0	8563	2858.769119454671	5
0	8565	2860.372649107299	4
0	8571	2860.717622995859	5
0	8574	2861.314181282764	6
0	8576	2861.590440933506	5
0	8583	2863.037760640472	4
0	8590	2865.09208430776	3
0	8596	2866.432947745035	4
0	8600	2869.4781838456	5
0	8601	2870.344187660032	4
0	8606	2870.408423061899	3
0	8611	2870.480301066598	2
0	8616	2872.192284959439	1
0	8620	2874.418708736415	2
0	8624	2875.2429047894	3
0	8626	2875.824485300198	4
0	8629	2880.156103829586	5
0	8630	2880.786007272286	4
0	8640	2882.292147326447	3
0	8649	2885.260446111157	4
0	8650	2888.136183836672	3
0	8657	2891.752990784329	4
0	8658	2891.816296473532	3
0	8669	2893.671974759458	2
0	8675	2894.770878228502	1
0	8683	2896.624444300161	0
0	8689	2896.806589172333	1
0	8691	2896.967884676734	2
0	8694	2898.692186893758	1
0	8700	2898.74471774753	2
0	8703	2901.115049370049	3
0	8704	2901.271860003178	2
0	8712	2907.28837528119	1
0	8719	2908.649616349152	2
0	8720	2909.251032917228	1
0	8726	2910.920722824956	0
0	8738	2912.250083328043	1
0	8742	2918.139928195753	2
0	8744	2918.265026330576	3
0	8746	2921.543017714852	4
0	8750	2923.290107378737	5
0	8753	2925.748060273673	4
0	8758	2928.07591687094	3
0	8764	2929.667747324569	2
0	8774	2930.693553429681	1
0	8779	2931.55000445275	0
0	8785	2931.883615763919	1
0	8787	2932.958902021589	2
0	8788	2933.406926120194	1
0	8793	2934.006007033115	0
0	8799	2934.787769409552	1
0	8803	2936.724802693998	0
0	8822	2940.067786484079	1
0	8824	2941.577095304609	0
0	8836	2946.518165447088	1
0	8839	2947.618463018062	2
0	8840	2947.735645868529	1
0	8846	2948.468587017855	0
0	8857	2949.524020514943	1
0	8858	2949.903099250639	0
0	8876	2955.398616150195	1
0	8877	2955.682881033677	0
0	8885	2958.467265244499	1
0	8887	2959.519813221697	2
0	8889	2960.001165973756	3
0	8892	2961.689163504064	2
0	8897	2961.866992177319	1
0	8907	2964.355808964884	0
0	8917	2968.42413379298	1
0	8918	2969.720560137145	0
0	8929	2972.115012639612	1
0	8932	2975.507299330698	2
0	8933	2976.425996073367	1
0	8938	2976.870334734867	0
0	8957	2980.740237710214	1
0	8958	2981.298142750244	0
0	8985	2985.640754917179	1
0	8988	2986.48868291846	0
0	8995	2987.081769194841	1
0	8996	2988.539413111508	0
0	9002	2990.314132055929	1
0	9003	2991.072596773882	0
0	9013	2993.915225127508	1
0	9016	2998.830461532325	0
0	9041	3009.662293175464	1
0	9042	3010.433225130856	0
0	9052	3016.311215303512	1
0	9053	3017.244137253578	0
0	9065	3020.953484661711	1
0	9067	3022.744630764713	2
0	9070	3023.112771552551	1
0	9075	3024.383100459429	0
0	9081	3024.438679588423	1
0	9083	3024.536813261644	2
0	9084	3024.67369222588	1
0	9089	3025.887589148955	0
0	9093	3027.195086722888	1
0	9100	3031.362863889668	2
0	9103	3031.653196273751	1
0	9108	3032.191347087069	0
0	9112	3033.022232483858	1
0	9114	3033.802929318761	2
0	9116	3035.342374712729	3
0	9122	3037.581871336875	2
0	9127	3040.015173351323	1
0	9133	3040.866165673788	2
0	9135	3041.452663157728	3
0	9141	3042.725013234387	2
0	9146	3043.068206892532	1
0	9152	3043.565117391636	2
0	9153	3043.914611129535	1
0	9160	3045.487988912844	2
0	9166	3047.110931980452	1
0	9171	3048.546824553749	0
0	9179	3051.999912938642	1
0	9181	3053.206837017885	0
0	9207	3055.989957746977	1
0	9211	3057.407138124554	2
0	9220	3065.218692395506	3
0	9224	3066.154795765896	4
0	9225	3066.914103078848	3
0	9236	3068.174573104586	2
0	9243	3069.350692489604	3
0	9249	3076.399188780853	2
0	9255	3078.327685504386	1
0	9261	3078.346152490228	2
0	9263	3079.535889502806	1
0	9270	3082.035113097838	2
0	9272	3082.685357676503	3
0	9273	3082.719697603481	2
0	9280	3083.262626631458	3
0	9282	3083.967104395425	4
0	9283	3084.081900331487	3
0	9288	3084.110764285421	2
0	9294	3084.200707316979	3
0	9295	3085.315397045711	2
0	9303	3086.792022229517	1
0	9309	3086.854645659949	2
0	9310	3087.545079146149	1
0	9316	3087.582534163274	2
0	9317	3088.132571436223	1
0	9323	3088.307195403514	2
0	9327	3089.936765990252	3
0	9329	3090.943594714774	4
0	9330	3094.695935637149	3
0	9339	3096.163444436426	2
0	9345	3096.986264285593	3
0	9350	3101.012578547062	4
0	9351	3101.892826402026	3
0	9357	3102.473974094057	4
0	9359	3102.752484450727	5
0	9363	3104.56430326802	6
0	9366	3105.203362441584	7
0	9368	3107.346734508618	8
0	9369	3111.236123641567	7
0	9374	3116.334934407993	6
0	9381	3118.569632022036	7
0	9384	3120.816624506326	8
0	9389	3123.017807467847	7
0	9395	3123.432049525678	6
0	9402	3127.715594070796	5
0	9409	3128.799623335858	4
0	9414	3129.102367055294	3
0	9420	3129.398598969997	4
0	9422	3130.694746846899	3
0	9428	3131.403092305153	4
0	9429	3132.070905342515	3
0	9433	3132.401391057436	4
0	9437	3136.500343235803	5
0	9439	3139.717467528095	6
0	9440	3141.211919724076	5
0	9448	3143.335330582495	6
0	9450	3143.514610119914	7
0	9451	3145.177195171178	6
0	9459	3146.637626050558	7
0	9461	3149.578824342881	6
0	9467	3150.422987668267	7
0	9469	3151.423642012774	8
0	9471	3151.835056144204	7
0	9478	3154.874359892394	8
0	9480	3155.433966011702	9
0	9482	3156.553990342024	10
0	9486	3158.768540909755	11
0	9491	3163.198857330243	10
0	9500	3164.851021076621	9
0	9506	3164.997507365675	8
0	9516	3167.00184622083	7
0	9522	3167.724258758494	8
0	9523	3167.949062290646	7
0	9533	3171.308055179563	8
0	9534	3173.252998390954	7
0	9539	3174.014887009708	6
0	9546	3175.316682503815	7
0	9548	3176.834845998183	8
0	9551	3181.412237479789	7
0	9558	3181.657206539352	8
0	9559	3183.808437101611	7
0	9565	3186.628411059539	6
0	9571	3191.554392693718	5
0	9576	3191.895531798787	4
0	9581	3192.597410675572	3
0	9586	3193.376480776156	2
0	9590	3194.334715737433	3
0	9593	3196.384725549253	2
0	9600	3198.822411193586	1
0	9606	3199.610057654441	2
0	9608	3200.168678798723	1
0	9616	3202.328393782943	2
0	9617	3203.855304686187	1
0	9623	3205.181972780255	0
0	9658	3213.835739311561	1
0	9662	3216.024515321184	2
0	9665	3217.463613851981	1
0	9670	3218.398596442728	0
0	9682	3219.307217827308	1
0	9683	3219.395192370155	0
0	9694	3221.09872851951	1
0	9697	3223.288866901177	0
0	9703	3223.492281939742	1
0	9704	3224.620865417756	0
0	9715	3227.453970280933	1
0	9717	3227.786727711843	2
0	9720	3229.497914584038	1
0	9728	3231.277817725021	0
0	9737	3232.000118992507	1
0	9740	3233.725080340091	0
0	9761	3239.143925490975	1
0	9762	3239.615909969909	0
0	9774	3242.096386325172	1
0	9779	3245.654453378424	0
0	9788	3246.696715735085	1
0	9790	3247.084720679906	2
0	9792	3247.569643536716	3
0	9794	3247.845375556796	4
0	9796	3247.878666651059	5
0	9799	3248.896110596207	4
0	9806	3250.106645965113	3
0	9811	3250.119936054232	2
0	9825	3253.55439577915	3
0	9829	3256.540688157631	4
0	9830	3257.048368963647	3
0	9839	3260.639474717405	2
0	9847	3262.576361640474	3
0	9848	3262.631927583172	2
0	9854	3262.94581222297	3
0	9856	3263.093612084109	4
0	9857	3263.494680494189	3
0	9862	3263.648903285358	2
0	9874	3272.447585590891	3
0	9875	3273.929751263153	2
0	9880	3275.294638155763	1
0	9885	3275.643316487065	0
0	9903	3279.472386093622	1
0	9909	3280.769552123022	2
0	9912	3282.589008175094	3
0	9913	3282.927133034935	2
0	9919	3284.019607179772	1
0	9927	3288.573125853064	0
0	9946	3292.137539864574	1
0	9947	3294.116006964782	0
0	9960	3296.948595418295	1
0	9962	3297.176819077384	2
0	9963	3301.245228691328	1
0	9970	3302.107932755951	2
0	9971	3303.860151850911	1
0	9976	3304.790214426086	0
0	9985	3310.176147559653	1
0	9987	3310.855756941295	2
0	9989	3313.961188269683	3
0	9992	3315.186940103883	2
0	9998	3316.026668884339	1
0	10007	3318.033393075529	2
0	10008	3319.065047842524	1
0	10013	3319.123064171491	0
0	10031	3325.407095913591	1
0	10035	3328.811561549812	2
0	10039	3331.78293681276	3
0	10040	3335.370089270813	2
0	10045	3336.085248282349	1
0	10051	3336.178478586897	2
0	10052	3338.085846256794	1
0	10061	3343.06725702621	0
0	10069	3345.231741408916	1
0	10073	3348.309618946495	2
0	10074	3349.322491851453	1
0	10080	3351.799295629712	0
0	10097	3355.502988914837	1
0	10100	3357.058292179122	0
0	10108	3359.632246222319	1
0	10112	3362.454234083931	2
0	10114	3363.315561111777	3
0	10117	3364.077365636787	2
0	10124	3367.284937170271	3
0	10129	3371.387662210912	2
0	10135	3371.392870873451	3
0	10138	3374.568513298424	4
0	10140	3375.161701091448	5
0	10143	3375.88326628365	4
0	10156	3381.78721489247	5
0	10159	3383.593821662935	4
0	10169	3395.799935651759	3
0	10176	3396.418137227065	4
0	10177	3397.288657105953	3
0	10183	3399.798983710265	4
0	10186	3403.838110627063	5
0	10188	3404.571443541318	6
0	10190	3407.116023935565	7
0	10191	3407.205492921849	6
0	10196	3407.94435718927	5
0	10201	3409.877663760308	4
0	10208	3410.75473016345	5
0	10209	3413.964185916452	4
0	10216	3414.10892465376	3
0	10222	3414.58567303759	4
0	10223	3415.121096314816	3
0	10231	3416.932779900947	2
0	10236	3417.764007396766	1
0	10240	3418.945793329366	2
0	10244	3420.390084778458	3
0	10246	3421.272434667105	4
0	10252	3424.111397256464	3
0	10260	3425.502116299125	2
0	10266	3429.006049668372	1
0	10272	3431.16880088854	2
0	10275	3431.754925476007	1
0	10282	3432.661247390404	0
0	10306	3435.963710645343	1
0	10309	3437.261528737919	2
0	10312	3441.806525298725	3
0	10314	3441.998892319679	4
0	10315	3443.380787071348	3
0	10320	3444.219429066331	2
0	10325	3444.326759130501	1
0	10330	3445.080733071515	0
0	10364	3469.886648029155	1
0	10365	3470.311877523347	0
0	10381	3474.260848972748	1
0	10382	3474.396667901705	0
0	10390	3476.760756004155	1
0	10392	3476.849924722593	2
0	10394	3477.084353460871	3
0	10395	3477.679317813589	2
0	10401	3479.129585899051	1
0	10412	3485.594314052245	0
0	10434	3488.983582817229	1
0	10435	3489.908876378364	0
0	10441	3490.027803863444	1
0	10443	3491.455982219703	0
0	10457	3494.630270251207	1
0	10459	3495.581929737844	0
0	10486	3507.471188722862	1
0	10487	3508.152011693431	0
0	10495	3511.579010185836	1
0	10497	3511.770134764128	2
0	10507	3517.906238141367	3
0	10508	3519.856779347655	2
0	10514	3521.735649027131	1
0	10523	3526.140530650838	0
0	10530	3527.529442971254	1
0	10533	3528.595166066248	2
0	10534	3529.970129055705	1
0	10540	3530.146142597753	2
0	10543	3530.984685780353	3
0	10545	3531.787161294489	4
0	10547	3535.022331754854	5
0	10548	3536.289432451299	4
0	10554	3536.717558435528	3
0	10560	3537.858753605185	2
0	10565	3537.981918285488	1
0	10571	3538.412378648672	2
0	10572	3540.786262987484	1
0	10580	3541.761520064656	2
0	10581	3541.84367795251	1
0	10585	3542.578429623242	2
0	10589	3544.826014127144	3
0	10593	3547.926525636177	4
0	10597	3548.620614117783	3
0	10603	3550.412804530081	2
0	10609	3557.306950274712	1
0	10615	3557.601113659302	2
0	10616	3558.242605051511	1
0	10621	3558.244340815433	0
0	10642	3563.655751026126	1
0	10643	3564.113536130784	0
0	10653	3566.174913920256	1
0	10654	3566.868842051005	0
0	10682	3571.132499135459	1
0	10684	3571.324841119497	2
0	10691	3573.926384687669	1
0	10696	3574.706659911876	0
0	10713	3577.181006403108	1
0	10714	3580.400636392882	0
0	10731	3585.185169397602	1
0	10734	3586.851979816826	0
0	10748	3591.330628652818	1
0	10749	3592.198754566656	0
0	10761	3595.978239802458	1
0	10763	3600.756529328294	0
0	10775	3601.998224722757	1
0	10776	3604.385084599075	0
0	10795	3611.588098047277	1
0	10797	3615.634547829183	2
0	10801	3617.650594460492	3
0	10803	3618.398051709559	4
0	10804	3618.441394715519	3
0	10809	3620.782394635563	2
0	10814	3621.056501272517	1
0	10824	3621.24859786476	2
0	10825	3621.843752125874	1
0	10831	3626.365431296891	0
0	10841	3627.432263300536	1
0	10842	3628.026498802329	0
0	10865	3638.39236572511	1
0	10870	3641.433323119915	0
0	10898	3656.914623772626	1
0	10900	3657.138317569429	2
0	10905	3658.368876921584	1
0	10911	3658.668443006121	0
0	10924	3659.632891203444	1
0	10925	3659.925716373417	0
0	10937	3660.929904906474	1
0	10941	3661.930109377208	2
0	10942	3662.748158325538	1
0	10949	3668.313744716084	0
0	10960	3668.50341292455	1
0	10961	3671.135285745124	0
0	10985	3676.427752118653	1
0	10988	3680.061227766871	0
0	10994	3680.453377568503	1
0	10996	3683.39410883473	0
0	11011	3688.9932229105	1
0	11012	3689.355393671854	0
0	11018	3691.545120758653	1
0	11023	3692.131290570262	0
0	11029	3693.342434754803	1
0	11030	3693.450312890343	0
0	11054	3699.153430669108	1
0	11056	3699.283281409572	2
0	11058	3700.653062803352	3
0	11059	3701.599558008796	2
0	11065	3702.140785353916	3
0	11067	3702.428198762682	4
0	11069	3703.181669871295	5
0	11071	3704.857348775029	4
0	11076	3706.663584079033	3
0	11083	3707.76306532453	4
0	11085	3708.781520163352	3
0	11091	3709.147828654582	4
0	11094	3711.590417830852	3
0	11099	3712.112553755859	2
0	11103	3712.352883447965	3
0	11108	3714.596754712867	4
0	11110	3715.118943408761	3
0	11118	3718.39357788486	2
0	11123	3719.341581643847	1
0	11128	3719.484834393606	0
0	11150	3728.887761455868	1
0	11152	3731.145711943289	0
0	11159	3732.050622038284	1
0	11160	3732.178302969644	0
0	11188	3737.763180547966	1
0	11189	3739.379156522347	0
0	11199	3740.327032383168	1
0	11203	3747.582538097485	0
0	11209	3748.032820059312	1
0	11210	3748.154843181788	0
0	11221	3748.824107913861	1
0	11223	3749.355641426245	0
0	11241	3752.528103680959	1
0	11245	3754.301321683463	0
0	11262	3757.804802836061	1
0	11266	3758.545771814929	2
0	11271	3761.534887255226	1
0	11280	3765.348352772719	2
0	11283	3766.602988085615	3
0	11284	3767.596946626304	2
0	11289	3767.657855499509	1
0	11296	3769.066592963379	0
0	11308	3771.223572171809	1
0	11310	3773.483104941421	0
0	11317	3774.595323920232	1
0	11318	3774.67807014557	0
0	11342	3784.166100808562	1
0	11343	3785.256114457683	0
0	11375	3800.298098787799	1
0	11376	3800.573456361644	0
0	11383	3800.975796856037	1
0	11384	3803.594856942592	0
0	11391	3804.054924895733	1
0	11392	3804.495010277744	0
0	11420	3809.931524528706	1
0	11423	3813.125363984079	0
0	11430	3814.902465117588	1
0	11433	3815.6043406009	2
0	11434	3818.815568362247	1
0	11445	3825.487135859667	2
0	11448	3830.619448767127	1
0	11455	3830.959703570642	2
0	11457	3831.16845778519	1
0	11462	3831.838118027329	0
0	11474	3836.562159614949	1
0	11475	3836.811842963366	0
0	11486	3837.159365579199	1
0	11491	3839.943653471837	2
0	11492	3840.11805529623	1
0	11499	3841.995723030597	2
0	11502	3843.266994341755	1
0	11510	3848.920166616556	0
0	11552	3862.826678308614	1
0	11554	3862.901641956763	2
0	11559	3866.41635912933	1
0	11565	3868.05298917724	2
0	11567	3869.173892446683	3
0	11571	3872.205979806558	4
0	11573	3874.782846954399	5
0	11574	3878.382811187205	4
0	11583	3880.239351382771	3
0	11590	3882.799082432449	4
0	11592	3883.072608813482	5
0	11594	3884.230488162621	6
0	11596	3885.69001490624	7
0	11599	3886.965331498719	6
0	11607	3888.905415545252	5
0	11612	3890.299125950233	4
0	11618	3890.973515179895	5
0	11619	3893.850827503117	4
0	11626	3894.570420191014	5
0	11628	3896.648003110409	6
0	11629	3896.694737284303	5
0	11638	3898.641007456108	6
0	11639	3899.928897722599	5
0	11644	3901.381162800443	4
0	11652	3904.25487997731	5
0	11655	3904.957390789659	4
0	11659	3907.029152995217	5
0	11662	3907.779502650804	4
0	11668	3909.222709135454	5
0	11672	3911.392227496582	4
0	11678	3911.943655113633	3
0	11683	3912.081764969	2
0	11692	3915.517153206427	3
0	11693	3915.8582031041	2
0	11699	3916.908908084966	3
0	11701	3919.645051043555	4
0	11703	3920.724760493684	5
0	11704	3921.480414990792	4
0	11709	3923.462106992324	3
0	11718	3924.365169436779	4
0	11719	3924.855496928108	3
0	11727	3926.429813240065	2
0	11733	3928.064691956538	1
0	11739	3930.037927315717	2
0	11741	3933.33285926872	1
0	11747	3933.686870910857	2
0	11748	3934.352600553192	1
0	11757	3939.564913157647	2
0	11759	3940.733061484156	1
0	11765	3941.827997487606	0
0	11782	3944.091942353233	1
0	11785	3948.635682595821	0
0	11802	3950.319045062856	1
0	11803	3952.89163890352	0
0	11814	3954.61398160682	1
0	11821	3959.440517049159	0
0	11838	3963.674709282049	1
0	11839	3964.485269233152	0
0	11872	3980.294677334027	1
0	11876	3981.66225340338	2
0	11877	3981.951795213713	1
0	11885	3984.711276472969	0
0	11892	3986.810459996394	1
0	11898	3988.853560075402	0
0	11904	3989.030458712141	1
0	11906	3989.763136049672	2
0	11910	3992.565585216302	1
0	11915	3992.65202723407	0
0	11922	3993.86974108298	1
0	11925	3995.151592013351	2
0	11926	3996.008357693314	1
0	11933	3996.113210931908	0
0	11957	4001.745037253885	1
0	11958	4002.607940485755	0
0	11975	4004.048385484774	1
0	11977	4006.58686035192	0
0	11984	4009.884930088581	1
0	11986	4011.025160388128	2
0	11987	4012.322436087484	1
0	11993	4013.265256700094	2
0	11994	4014.063515649118	1
0	11999	4014.424617751415	0
0	12027	4025.879105753195	1
0	12029	4027.309339426037	2
0	12037	4031.674894228433	3
0	12038	4031.911948392072	2
0	12044	4033.713800406955	3
0	12045	4033.874763705764	2
0	12051	4035.937857808315	1
0	12057	4038.245544921998	0
0	12063	4038.900770585304	1
0	12064	4038.991048991885	0
0	12074	4040.251356118336	1
0	12076	4042.555556001797	2
0	12078	4043.966195778603	3
0	12087	4051.37992184307	4
0	12089	4051.768901231706	5
0	12090	4052.217350208275	4
0	12095	4053.390722196053	3
0	12102	4055.756809876577	2
0	12109	4056.398335508106	1
0	12114	4057.112075088185	0
0	12118	4057.41785407314	1
0	12122	4058.171169731262	0
0	12145	4062.854108613918	1
0	12147	4063.385612729809	2
0	12149	4064.310579667738	1
0	12155	4065.419459735291	2
0	12156	4068.061067528699	1
0	12162	4068.41110327388	2
0	12165	4071.884071067161	1
0	12172	4075.429388097136	2
0	12174	4076.575986368205	3
0	12176	4077.474467461939	2
0	12181	4079.393263782667	1
0	12188	4082.724338181417	0
0	12199	4084.550167185727	1
0	12201	4085.045132632312	2
0	12204	4087.597148102915	1
0	12210	4087.753993107209	2
0	12215	4092.659384870449	1
0	12220	4092.688909478558	0
0	12235	4096.403223694122	1
0	12236	4098.411223467918	0
0	12242	4098.919788944239	1
0	12244	4101.063420788961	0
0	12256	4103.180893912904	1
0	12257	4104.302127792243	0
0	12270	4107.185979228575	1
0	12272	4107.318475644685	2
0	12273	4108.789433199278	1
0	12280	4112.072051749178	2
0	12281	4112.462452740005	1
0	12288	4114.297649907454	2
0	12289	4114.402439540586	1
0	12294	4114.618888385493	0
0	12300	4115.118512690259	1
0	12304	4116.518973286685	0
0	12345	4132.616298089427	1
0	12349	4133.349645261279	0
0	12357	4133.776470271781	1
0	12359	4137.019737470424	0
0	12371	4137.851565779243	1
0	12372	4138.476199936481	0
0	12384	4140.670102116888	1
0	12388	4142.419616457935	2
0	12392	4143.83469924555	3
0	12394	4143.982066775681	2
0	12400	4147.780599052368	1
0	12408	4149.731217452674	0
0	12433	4161.573764452368	1
0	12434	4162.129380471637	0
0	12443	4164.285795321005	1
0	12444	4168.564322797206	0
0	12452	4168.612596120624	1
0	12456	4169.365880190313	0
0	12473	4173.93572611063	1
0	12475	4174.313729334245	2
0	12477	4174.938073860641	3
0	12478	4177.123575702892	2
0	12485	4178.06580486788	3
0	12486	4178.546348026706	2
0	12491	4179.209897430133	1
0	12496	4180.131450524504	0
0	12504	4180.847902916388	1
0	12508	4182.827476715585	2
0	12510	4184.355886378455	3
0	12511	4185.409494136785	2
0	12519	4192.069993669486	1
0	12527	4192.533259298089	2
0	12529	4193.627463328203	3
0	12530	4194.310580522999	2
0	12539	4195.226555081459	3
0	12544	4200.238279589804	2
0	12550	4202.496464008117	1
0	12556	4204.520022216336	0
0	12562	4204.587066342812	1
0	12565	4206.962147581116	0
0	12574	4208.58997487791	1
0	12575	4209.30523467026	0
0	12591	4210.082002575611	1
0	12596	4213.270902375306	2
0	12599	4214.44309736276	1
0	12606	4216.775361727232	2
0	12607	4217.693173048236	1
0	12614	4217.748344657391	2
0	12616	4218.501296892059	1
0	12621	4219.2225936183	0
0	12628	4220.696604365615	1
0	12632	4223.77909619527	0
0	12648	4226.121961954928	1
0	12650	4228.969712452043	0
0	12670	4231.959238174527	1
0	12672	4232.155947943347	2
0	12674	4232.442534497808	3
0	12675	4232.869310353775	2
0	12682	4234.725512582399	3
0	12683	4236.042737639217	2
0	12688	4236.144271455921	1
0	12697	4241.395006256007	0
0	12711	4244.035923451022	1
0	12712	4244.714170208968	0
0	12726	4250.214867847802	1
0	12727	4253.774642872708	0
0	12749	4262.277743872907	1
0	12751	4263.447237717556	2
0	12758	4265.140414545313	1
0	12766	4268.536325049327	0
0	12776	4269.289387445095	1
0	12781	4270.807222219158	2
0	12783	4272.764150026838	3
0	12785	4273.438368049159	4
0	12786	4274.763158629888	3
0	12792	4275.295158888644	2
0	12798	4275.835339030302	3
0	12799	4276.06457863473	2
0	12811	4280.02061373566	1
0	12817	4281.993187092317	0
0	12835	4286.841952607316	1
0	12838	4287.87123371884	0
0	12854	4292.592082960172	1
0	12856	4293.799837774514	2
0	12860	4294.9154656412	3
0	12867	4296.674126397045	4
0	12868	4297.615305845445	3
0	12874	4298.52959364211	4
0	12882	4304.599388610777	5
0	12888	4306.827688659445	6
0	12890	4308.449996816268	7
0	12892	4311.173830239573	8
0	12893	4314.64987356346	7
0	12898	4315.293601396079	6
0	12907	4316.995576172209	5
0	12913	4317.135463101482	6
0	12915	4319.328043106989	5
0	12921	4319.911212706794	4
0	12928	4321.13394597694	5
0	12932	4327.175889974323	6
0	12934	4328.639932316826	7
0	12936	4329.301700771261	8
0	12938	4329.376396751092	9
0	12939	4329.90264453226	8
0	12947	4334.285290574516	7
0	12952	4334.393584611232	6
0	12958	4335.765461293734	5
0	12964	4336.932937225651	6
0	12965	4337.958859955332	5
0	12971	4341.053491860027	6
0	12975	4343.909096289403	5
0	12981	4344.168863132864	6
0	12983	4345.270094150444	7
0	12986	4348.521619207467	8
0	12988	4351.921986043488	9
0	12989	4352.534424124119	8
0	12995	4352.769069354884	7
0	13001	4354.434563397239	8
0	13002	4356.630375054627	7
0	13008	4358.272727072907	8
0	13011	4359.845480231243	9
0	13018	4361.657485453067	10
0	13019	4363.269740312547	9
0	13024	4363.430928102474	8
0	13032	4367.133679816527	9
0	13033	4368.246330185898	8
0	13038	4369.238221719791	7
0	13042	4369.42476765626	8
0	13045	4371.118174967959	7
0	13050	4374.025449874223	6
0	13057	4375.807936123604	7
0	13061	4378.289584051984	8
0	13064	4381.354420154186	7
0	13069	4381.410030783569	6
0	13073	4383.341481562283	7
0	13075	4384.944503204232	8
0	13079	4385.954774184098	7
0	13085	4387.475772119393	8
0	13086	4390.99425848271	7
0	13091	4391.427824188116	6
0	13097	4392.430871538445	7
0	13098	4393.224591777354	6
0	13102	4393.702986357184	7
0	13104	4394.623065367965	8
0	13106	4397.507089771302	9
0	13108	4398.830759290812	10
0	13114	4409.497690278396	11
0	13116	4410.713755143196	10
0	13124	4411.84280191805	11
0	13126	4415.163948143585	10
0	13131	4415.549859073434	9
0	13137	4418.015796965168	10
0	13138	4419.516384261287	9
0	13145	4420.033303551179	8
0	13152	4421.553447268597	7
0	13158	4421.606649610618	8
0	13160	4422.207365939417	9
0	13162	4422.730875177241	8
0	13169	4424.624766953263	7
0	13174	4426.338964156939	6
0	13178	4426.561639274779	7
0	13190	4437.305155095879	6
0	13198	4439.109409704285	7
0	13200	4439.895575245341	8
0	13203	4440.505421435755	7
0	13207	4441.510584310535	8
0	13209	4442.147695559705	9
0	13211	4443.938722986041	10
0	13217	4445.892768388887	11
0	13219	4446.528519976303	12
0	13220	4446.680054237016	11
0	13224	4446.875474017467	12
0	13231	4450.088523591826	11
0	13240	4450.771907443961	12
0	13243	4451.80466393701	13
0	13245	4454.02217807074	14
0	13246	4455.417858982458	13
0	13252	4456.182440453916	12
0	13257	4456.201464524685	11
0	13263	4456.688068821822	10
0	13271	4457.593648437713	9
0	13280	4464.568591764779	8
0	13287	4465.382766543215	9
0	13288	4467.181532497162	8
0	13293	4467.475457519594	7
0	13298	4469.825378428062	6
0	13305	4473.176469801224	5
0	13314	4474.245204487429	4
0	13319	4474.522352047398	3
0	13324	4477.474218431038	2
0	13332	4481.563433421017	3
0	13333	4481.92834039648	2
0	13340	4483.632018313438	3
0	13342	4483.791565665068	4
0	13344	4485.961849935352	3
0	13350	4487.571184275685	2
0	13355	4488.285899485425	1
0	13362	4489.690503261584	2
0	13363	4490.790922332697	1
0	13368	4490.853311136129	0
0	13397	4501.099197207341	1
0	13399	4502.575204868195	2
0	13403	4506.450099807209	3
0	13405	4508.386999195324	4
0	13407	4508.796231390417	5
0	13410	4510.188525144678	4
0	13417	4511.670694684237	5
0	13418	4511.727100495306	4
0	13423	4511.861159275863	3
0	13430	4513.794377751255	4
0	13432	4514.22548066694	3
0	13438	4516.691110214874	2
0	13446	4520.093657158859	1
0	13451	4520.271409684265	0
0	13479	4528.523977282182	1
0	13486	4532.201931500255	0
0	13517	4546.796285572778	1
0	13523	4550.012871760579	2
0	13527	4557.310785995169	3
0	13528	4558.798407758466	2
0	13534	4559.950600962968	1
0	13543	4562.747938606549	2
0	13544	4563.132919106927	1
0	13553	4566.115323135511	2
0	13555	4566.531017772655	1
0	13561	4566.658579159988	0
0	13568	4567.669490524476	1
0	13569	4568.957880697629	0
0	13575	4569.164410434848	1
0	13577	4570.115479479224	0
0	13592	4573.97720438423	1
0	13603	4579.25997946613	0
0	13628	4581.641107303129	1
0	13630	4585.154239178969	2
0	13633	4586.196921306208	1
0	13639	4586.958082844791	2
0	13641	4587.79561179386	3
0	13643	4591.067636892351	2
0	13648	4591.108861586481	1
0	13654	4591.586058325374	0
0	13661	4592.854927077786	1
0	13662	4592.961344645263	0
0	13673	4593.830477417503	1
0	13674	4594.559374012338	0
0	13685	4599.151992421494	1
0	13689	4601.466573027433	2
0	13692	4608.55202147855	1
0	13696	4611.335896996027	2
0	13700	4614.674618114632	3
0	13701	4614.813333114603	2
0	13709	4619.269175391919	3
0	13713	4620.548998004098	4
0	13715	4621.395071129379	3
0	13720	4621.863463384297	2
0	13727	4622.769511704518	3
0	13728	4623.169723157747	2
0	13733	4623.782335072932	1
0	13740	4624.463957671918	0
0	13747	4625.252297962258	1
0	13750	4627.41478965246	0
0	13756	4629.352369574832	1
0	13757	4630.211387896384	0
0	13768	4631.117937709582	1
0	13770	4632.388864357054	2
0	13777	4634.273096194868	1
0	13783	4634.606522534628	2
0	13784	4636.025055459605	1
0	13790	4637.743594208702	2
0	13794	4639.659282389653	3
0	13798	4643.069589901303	4
0	13799	4646.371242420934	3
0	13809	4650.638113522882	2
0	13815	4650.961803886018	3
0	13821	4654.675789237531	4
0	13822	4655.364205083764	3
0	13834	4660.705857304354	2
0	13840	4661.317301974392	3
0	13841	4663.935443433096	2
0	13846	4664.312247543887	1
0	13851	4664.49806710707	0
0	13855	4664.834566849714	1
0	13858	4665.598234768311	0
0	13862	4666.781851761947	1
0	13867	4667.212466772206	2
0	13868	4667.498708421445	1
0	13873	4667.881207152979	0
0	13889	4671.526782459263	1
0	13890	4673.935139743893	0
0	13907	4677.836532036974	1
0	13909	4678.158363594204	2
0	13910	4680.054377899685	1
0	13915	4681.696134482835	0
0	13924	4684.68532156098	1
0	13925	4685.154792818215	0
0	13931	4686.923335845084	1
0	13937	4688.601214627562	0
0	13956	4698.682061599367	1
0	13958	4702.580557980016	2
0	13959	4704.900761157658	1
0	13965	4705.472806536151	2
0	13966	4705.624021805571	1
0	13977	4711.100293654738	0
0	13994	4712.519778793672	1
0	13995	4712.623939876832	0
0	14016	4719.240597895798	1
0	14018	4719.68773108398	2
0	14022	4721.603096369758	3
0	14026	4722.758872392881	4
0	14027	4722.971773042745	3
0	14032	4723.076922021961	2
0	14037	4724.208384204888	1
0	14045	4727.547647496522	0
0	14051	4728.772757222325	1
0	14052	4729.047356537595	0
0	14060	4731.503848714924	1
0	14063	4732.998564046494	2
0	14065	4735.015153011689	3
0	14066	4735.604693922374	2
0	14073	4737.468752351201	3
0	14074	4737.586264438679	2
0	14084	4745.382874742683	3
0	14085	4746.253496637194	2
0	14090	4746.664235775947	1
0	14097	4746.864112666488	2
0	14099	4747.457987064107	3
0	14102	4748.861621108569	4
0	14103	4749.560145452286	3
0	14109	4751.157310527744	2
0	14116	4752.055395088863	3
0	14120	4752.639415247467	4
0	14122	4753.364117660251	5
0	14127	4753.794724674907	6
0	14128	4753.901656895793	5
0	14134	4755.844591281576	4
0	14140	4757.673605669283	3
0	14145	4758.937254808266	2
0	14151	4760.957039742452	1
0	14156	4761.194746110123	0
0	14172	4762.250518080896	1
0	14177	4763.872150538578	2
0	14180	4764.771141031873	1
0	14186	4765.468019269144	0
0	14204	4769.889245280659	1
0	14206	4769.893311250759	2
0	14208	4770.004109092835	3
0	14209	4771.33205532285	2
0	14219	4774.24180129453	3
0	14220	4774.74913592856	2
0	14225	4774.879506967406	1
0	14230	4775.361878446568	0
0	14247	4781.842678830084	1
0	14251	4782.081487685792	2
0	14256	4786.781180082726	1
0	14261	4787.26183856213	0
0	14282	4794.477497467314	1
0	14283	4794.61389425302	0
0	14289	4795.037426350806	1
0	14291	4795.143914584105	2
0	14293	4798.424475247856	1
0	14300	4799.202279053652	0
0	14312	4802.733866597083	1
0	14316	4807.812727850039	0
0	14333	4811.735332591917	1
0	14334	4811.844448840382	0
0	14358	4820.259177773675	1
0	14364	4822.672210527787	2
0	14366	4823.797104490415	3
0	14367	4824.543022090386	2
0	14372	4824.909872184929	1
0	14378	4825.154473232315	2
0	14379	4825.241726103386	1
0	14386	4827.40989672053	0
0	14393	4828.57961106961	1
0	14396	4829.557786555295	2
0	14397	4830.03230212319	1
0	14402	4831.610067104178	0
0	14408	4831.812005614353	1
0	14409	4832.66214471658	0
0	14435	4846.132182468547	1
0	14440	4850.822250054486	0
0	14449	4854.856308090484	1
0	14451	4855.268412144685	2
0	14452	4855.552998983978	1
0	14457	4855.747706317092	0
0	14465	4858.288556071091	1
0	14468	4861.290360233724	0
0	14474	4861.7164084962	1
0	14476	4862.490200485458	0
0	14500	4864.186160033915	1
0	14501	4865.005447777288	0
0	14515	4867.654060815955	1
0	14517	4867.743387313563	2
0	14521	4869.946273197021	3
0	14522	4870.060433604212	2
0	14529	4871.314797749521	3
0	14535	4873.961327226455	4
0	14536	4874.993923053544	3
0	14542	4879.358068309692	2
0	14553	4880.203150817517	3
0	14554	4880.873286776414	2
0	14560	4882.476202673812	1
0	14565	4882.713220940306	0
0	14574	4884.155886652669	1
0	14575	4884.64846901256	0
0	14615	4891.960485489984	1
0	14616	4892.856154644943	0
0	14650	4901.386219322945	1
0	14653	4904.287050486194	0
0	14661	4904.953933186521	1
0	14662	4905.520459443941	0
0	14670	4906.950726524443	1
0	14674	4911.518588568328	0
0	14688	4916.19451186336	1
0	14689	4918.851944944485	0
0	14698	4920.209185278894	1
0	14702	4922.414255919445	2
0	14704	4922.728397551664	3
0	14705	4924.430332653066	2
0	14712	4927.622928457448	3
0	14715	4928.376940929218	2
0	14721	4930.278258950311	1
0	14729	4937.767662790765	0
0	14753	4943.944027801988	1
0	14761	4950.437404022311	0
0	14777	4952.880062282969	1
0	14779	4956.232542318459	2
0	14784	4958.140704993167	3
0	14785	4958.492595591744	2
0	14790	4959.578804211138	1
0	14801	4965.414246078683	0
0	14821	4970.610625434929	1
0	14823	4970.775010243399	2
0	14824	4970.889717427555	1
0	14832	4972.956736309066	2
0	14833	4975.002262746701	1
0	14838	4975.28188826109	0
0	14847	4977.241079312992	1
0	14849	4978.434850850971	2
0	14851	4978.925033873308	3
0	14852	4980.032253818022	2
0	14858	4980.73026366706	3
0	14863	4982.628443436721	2
0	14869	4983.217621780572	3
0	14873	4983.957407041681	4
0	14874	4984.440626777765	3
0	14879	4984.55486789846	2
0	14884	4984.778928842241	1
0	14891	4985.108476136805	2
0	14900	4990.393044062057	1
0	14906	4992.794101096657	0
0	14931	4995.926739348682	1
0	14932	4997.237332188817	0
0	14949	5000.812750177687	1
0	14950	5002.439142506453	0
0	14989	5016.97642956163	1
0	14991	5017.443131413784	2
0	14993	5018.853857780804	3
0	14994	5018.909526245227	2
0	15000	5019.567806670136	1
0	15006	5021.043279306676	0
0	15013	5022.531219374702	1
0	15018	5027.692990808684	0
0	15040	5037.696916566588	1
0	15043	5040.924085762784	0
0	15051	5041.935137231655	1
0	15053	5042.296282696771	0
0	15059	5043.34700734739	1
0	15066	5048.087958100005	2
0	15067	5048.61955186657	1
0	15074	5050.563039002832	2
0	15076	5050.950993446147	3
0	15078	5051.188334831361	4
0	15079	5054.24447915432	3
0	15085	5054.570775363347	4
0	15089	5057.839678134462	5
0	15090	5058.29641738942	4
0	15095	5058.802188507754	3
0	15101	5060.362203457979	2
0	15109	5061.646638154002	3
0	15115	5065.138917902221	2
0	15121	5065.345905220944	3
0	15122	5065.879346071888	2
0	15130	5069.061180260984	3
0	15132	5070.350015866257	4
0	15133	5077.323674506098	3
0	15140	5077.634879682811	2
0	15145	5077.882353697052	1
0	15150	5077.951372026429	0
0	15162	5079.920641139939	1
0	15163	5080.253236435405	0
0	15186	5084.508675261833	1
0	15189	5087.276787633237	0
0	15198	5088.097574839681	1
0	15200	5089.86922086873	0
0	15212	5095.504549104597	1
0	15213	5096.697030377179	0
0	15227	5101.504359858639	1
0	15229	5103.023881320009	2
0	15231	5104.671702662282	3
0	15232	5105.555874075771	2
0	15238	5106.221090786299	3
0	15239	5106.279531821293	2
0	15244	5107.43211119591	1
0	15249	5107.6200594966	0
0	15255	5110.699753359635	1
0	15263	5112.601955891205	2
0	15264	5113.221859776916	1
0	15270	5113.344418932891	2
0	15273	5113.775644912914	3
0	15274	5113.855226541767	2
0	15282	5115.469497428405	3
0	15285	5117.156576050353	4
0	15286	5118.200703896427	3
0	15296	5119.899486693897	2
0	15304	5122.1848559402	1
0	15312	5125.186786789973	2
0	15313	5125.716274098402	1
0	15318	5125.79717495295	0
0	15334	5131.030514096289	1
0	15336	5133.005379332808	2
0	15338	5133.987798125064	3
0	15341	5135.164500522883	2
0	15347	5136.74037603775	1
0	15354	5139.404089115881	2
0	15355	5139.943645119833	1
0	15360	5140.499587797279	0
0	15366	5141.22932561892	1
0	15368	5147.138439700083	0
0	15386	5149.92316049642	1
0	15389	5151.946856381596	2
0	15392	5153.817656206667	1
0	15400	5158.243419295652	0
0	15412	5160.70456927229	1
0	15415	5162.139515080832	0
0	15424	5163.31881071886	1
0	15425	5165.281098311707	0
0	15431	5165.670278727094	1
0	15432	5168.084356279763	0
0	15451	5172.421403804352	1
0	15453	5172.485590991459	2
0	15455	5173.846372174659	1
0	15460	5174.088896266422	0
0	15471	5176.044056769264	1
0	15473	5177.802995753944	2
0	15474	5178.100105408765	1
0	15480	5178.224390546439	2
0	15482	5178.98927683425	3
0	15486	5180.51280674643	2
0	15491	5180.542680706446	1
0	15499	5182.488800626013	2
0	15504	5185.264561106868	3
0	15509	5186.180489125503	4
0	15510	5186.835277376974	3
0	15518	5187.843696649091	2
0	15523	5188.863849027109	1
0	15529	5190.17590422835	2
0	15533	5191.776704745874	1
0	15538	5193.359462490977	0
0	15542	5195.465489059642	1
0	15549	5196.480998848611	0
0	15583	5204.347972930178	1
0	15584	5204.492994364457	0
0	15601	5211.647286225889	1
0	15603	5215.803822373622	2
0	15605	5216.161501460631	3
0	15608	5218.056660961604	2
0	15614	5221.776306554563	1
0	15620	5222.66142758767	0
0	15650	5239.817377704482	1
0	15652	5240.635810466697	2
0	15654	5241.048225201805	3
0	15658	5241.519693114048	4
0	15660	5241.744397943663	5
0	15665	5246.182931879867	4
0	15671	5246.684981799411	3
0	15677	5248.417815398339	2
0	15682	5248.61894527865	1
0	15688	5249.527606842082	2
0	15690	5250.678526091695	1
0	15696	5251.861166022909	0
0	15704	5255.736431802043	1
0	15706	5258.25791629634	2
0	15708	5258.84209069378	3
0	15709	5259.177128904828	2
0	15714	5260.006556980327	1
0	15723	5262.510584034269	0
0	15731	5263.39773320986	1
0	15732	5265.588020193937	0
0	15759	5278.09597560332	1
0	15761	5279.272439794455	2
0	15762	5280.706133478327	1
0	15770	5282.317507711805	2
0	15772	5282.427118380758	3
0	15774	5283.232176700176	4
0	15780	5284.255507161148	5
0	15781	5285.97871813208	4
0	15786	5286.966733586653	3
0	15793	5288.589086435946	2
0	15798	5288.669514649154	1
0	15802	5289.219053715775	2
0	15806	5290.647110277027	3
0	15810	5292.445080903928	4
0	15811	5293.126990012678	3
0	15815	5293.883748127718	4
0	15819	5296.358623815282	5
0	15821	5296.584101634361	6
0	15827	5300.284998405943	7
0	15828	5300.451559656922	6
0	15832	5301.65982894072	7
0	15835	5303.789692946137	6
0	15843	5306.134000051241	5
0	15851	5306.795615626445	6
0	15853	5306.993096909046	5
0	15861	5310.273171965701	6
0	15862	5313.190234503286	5
0	15868	5314.057267557333	6
0	15869	5315.081575917139	5
0	15875	5315.700267877097	6
0	15879	5317.056531671154	5
0	15884	5317.839863028879	4
0	15889	5319.144516007796	3
0	15900	5325.31335085272	2
0	15907	5326.958430253749	3
0	15913	5331.125323710153	2
0	15919	5333.297614634704	1
0	15927	5334.208687141044	0
0	15940	5338.946686310942	1
0	15941	5339.13988656773	0
0	15952	5339.961465628795	1
0	15954	5340.043047889994	2
0	15955	5340.116433612413	1
0	15960	5340.610737222663	0
0	15968	5342.514466787632	1
0	15970	5342.724575436471	2
0	15974	5344.052680590189	3
0	15975	5345.30618198501	2
0	15980	5345.833751476612	1
0	15986	5347.405375104201	2
0	15988	5347.629252312261	3
0	15990	5347.884783489301	4
0	15992	5349.159836519335	5
0	15998	5352.264606466708	4
0	16007	5355.434904289447	5
0	16011	5361.118933471262	4
0	16018	5362.546519504056	5
0	16020	5362.71872836071	6
0	16022	5363.922999366905	7
0	16023	5366.462301824919	6
0	16031	5367.846142678259	5
0	16036	5368.04177178656	4
0	16043	5369.848778501766	5
0	16045	5370.76943338908	6
0	16047	5373.111038108555	5
0	16054	5375.158585873947	6
0	16058	5377.489334390187	7
0	16059	5378.132834352759	6
0	16065	5384.15707802276	7
0	16067	5384.558547829437	8
0	16069	5384.930522316187	9
0	16071	5385.386430059585	10
0	16072	5385.421806210032	9
0	16081	5392.020878032856	10
0	16082	5393.975895002418	9
0	16087	5394.09648125888	8
0	16093	5398.071622926503	9
0	16094	5398.935138167005	8
0	16101	5399.982078170673	9
0	16103	5402.706068249594	8
0	16108	5402.753283766739	7
0	16113	5402.76341768006	6
0	16119	5404.091556670701	5
0	16124	5404.990578815463	4
0	16130	5407.769016501177	5
0	16134	5408.163819610901	6
0	16135	5409.673923729722	5
0	16140	5413.589253093445	4
0	16149	5417.578897247965	5
0	16150	5418.013767370173	4
0	16155	5418.780473451324	3
0	16159	5418.804862918896	4
0	16162	5419.712040731767	3
0	16166	5419.786735590495	4
0	16169	5420.674093331057	3
0	16173	5426.458731761874	4
0	16176	5427.039935438463	3
0	16180	5427.350978366643	4
0	16182	5429.737251895186	5
0	16184	5430.25534623408	6
0	16188	5433.049567795404	7
0	16189	5433.547566365606	6
0	16193	5434.412437025503	7
0	16196	5436.767005801515	6
0	16200	5436.91216452596	7
0	16206	5440.283857339641	8
0	16207	5441.623082483635	7
0	16211	5444.980320319238	8
0	16213	5446.780964107993	9
0	16216	5448.412484434773	8
0	16222	5448.995133808276	9
0	16225	5451.871829286041	8
0	16233	5454.611942850163	9
0	16236	5457.978691578926	8
0	16240	5458.088805253542	9
0	16242	5458.576546210184	10
0	16250	5461.893786021676	9
0	16257	5462.942639317089	8
0	16266	5465.677687147359	9
0	16269	5466.618881604591	10
0	16271	5467.33667487269	11
0	16273	5467.434584142964	12
0	16276	5467.899472883434	11
0	16283	5468.327155549066	10
0	16288	5469.012701364058	9
0	16294	5470.800152292182	8
0	16302	5473.294456227281	7
0	16311	5474.920065462838	8
0	16313	5474.937556675064	9
0	16314	5475.110382734502	8
0	16321	5476.328320373606	7
0	16327	5477.670461463716	8
0	16328	5478.901053789538	7
0	16335	5480.508559455428	6
0	16339	5480.518282760684	7
0	16347	5484.833653812251	6
0	16353	5485.069317962081	7
0	16354	5485.114223954014	6
0	16359	5485.307673264311	5
0	16368	5486.795502998393	6
0	16371	5487.93468435793	7
0	16375	5488.516596901568	8
0	16377	5488.548886027503	9
0	16378	5490.984857413566	8
0	16383	5491.133266218571	7
0	16388	5492.588921265327	6
0	16394	5497.258735644508	7
0	16398	5498.462885455678	6
0	16404	5499.43087888162	7
0	16405	5499.529920903787	6
0	16412	5500.939900849504	5
0	16418	5503.618177807327	6
0	16422	5505.217238175742	5
0	16427	5506.733648496374	4
0	16432	5507.09693358899	3
0	16442	5510.43708489505	4
0	16444	5511.016315643042	3
0	16453	5516.174926390714	2
0	16459	5516.56974057691	1
0	16467	5523.685575768788	0
0	16473	5523.829624904689	1
0	16477	5524.996130464552	0
0	16505	5536.936004945016	1
0	16510	5540.017789995046	0
0	16516	5540.107119672007	1
0	16517	5540.333121071547	0
0	16523	5541.147505288576	1
0	16527	5543.350338935745	2
0	16530	5543.491361356624	3
0	16532	5545.254948035161	4
0	16533	5547.078045195304	3
0	16542	5548.254430544197	4
0	16545	5549.949754087298	5
0	16556	5561.784633148393	4
0	16562	5564.296312739974	3
0	16568	5564.477131400022	4
0	16569	5564.533951713975	3
0	16578	5570.950035827491	2
0	16589	5575.857270624782	3
0	16590	5576.68495523965	2
0	16595	5576.938271413776	1
0	16602	5577.320502428189	2
0	16604	5578.872158717253	1
0	16613	5583.100730108048	0
0	16640	5586.811170420244	1
0	16644	5587.856148293673	2
0	16646	5589.277942423723	3
0	16648	5589.350150022515	4
0	16651	5591.437198889482	3
0	16656	5592.762282241954	2
0	16661	5596.013755782194	1
0	16666	5596.020105546689	0
0	16690	5604.321144990304	1
0	16694	5605.803417259808	2
0	16699	5611.503654168563	1
0	16705	5612.271082539421	0
0	16712	5614.680903265052	1
0	16713	5614.89577158782	0
0	16728	5616.327511538206	1
0	16730	5617.170250589912	2
0	16733	5617.598389899638	1
0	16739	5617.614144421162	2
0	16740	5617.657616008121	1
0	16747	5618.512905364455	2
0	16749	5618.532286925654	3
0	16751	5619.04564040309	4
0	16752	5620.001458482105	3
0	16757	5620.275985302758	2
0	16763	5621.428504054246	1
0	16770	5623.320867647325	2
0	16772	5624.15297074714	3
0	16776	5626.586958724004	2
0	16781	5626.699465955132	1
0	16786	5626.764531552554	0
0	16798	5629.718062097529	1
0	16802	5631.457538610819	0
0	16812	5633.992336665177	1
0	16815	5638.531535969358	0
0	16827	5642.333030185764	1
0	16831	5644.393217758755	0
0	16840	5644.883444629236	1
0	16841	5645.738757160073	0
0	16867	5654.494569010342	1
0	16874	5657.643240378241	0
0	16881	5658.439479212515	1
0	16884	5659.652170407854	0
0	16894	5664.597653661162	1
0	16898	5665.52313013988	2
0	16901	5665.596263244538	1
0	16909	5668.512659205589	2
0	16912	5669.174337014498	1
0	16918	5669.250706264629	2
0	16921	5669.47348979275	1
0	16927	5670.194350796941	0
0	16952	5673.262780979425	1
0	16956	5675.985888655819	0
0	16972	5679.912244141284	1
0	16973	5681.829484216805	0
0	16987	5684.546504301746	1
0	16989	5685.123509255167	2
0	16993	5690.409964601373	1
[...]
4	77634	26109.19261187131	7479.0283619582
4	77641	26111.608957137846	7477.0099513728
4	77669	26118.004742558658	7472.9234136585
4	77978	26229.559407290893	7583.6676783204
4	77994	26236.331334361281	7587.8990770868
4	78009	26238.878320648625	7583.441498359
4	78018	26240.287684625867	7576.4325801919
4	78033	26246.365074233899	7564.3381114708
4	78038	26247.796022537162	7556.1680510899
4	78048	26250.211433571825	7521.0914001621
4	78063	26259.393808130632	7529.800159309
4	78074	26269.013383626944	7538.836657839
4	78083	26274.333293229674	7538.5768225288
4	78096	26276.230020117941	7537.5702369127
4	78109	26279.511863607734	7534.7718946283
4	78116	26282.923592866861	7525.1368083478
4	78135	26289.386824620589	7508.5510154196
4	78148	26290.468240855502	7500.8089638651
4	78156	26292.117797210307	7496.2317411769
4	78168	26295.576677446341	7487.8090083084
4	78177	26297.727787910324	7480.5025932531
4	78211	26308.085260271167	7490.7156591554
4	78229	26311.7704081006	7485.9022839338
4	78238	26313.131440128376	7484.4073884533
4	78366	26351.517774065668	7522.4005055761
4	78371	26352.073400258978	7521.4900935652
4	78379	26353.474276174032	7522.1452991553
4	78389	26355.564315336301	7523.7003152389
4	78399	26358.823733558881	7524.9783337714
4	78404	26360.743013713634	7524.5733373564
4	78413	26363.142571825582	7518.3193396779
4	78466	26388.276652420323	7541.8087871743
4	78477	26392.709290106241	7544.6632034806
4	78488	26398.189732047491	7548.5124662
4	78516	26409.900394421392	7558.3642296513
4	78533	26414.092389647609	7559.3947012224
4	78546	26418.499187965579	7542.5917356983
4	78553	26421.913773866982	7545.5503996339
4	78566	26426.725607750396	7549.673072764
4	78579	26430.846729893762	7544.6433164065
4	78593	26436.214181679153	7538.9796641092
4	78602	26444.662775820705	7546.8282899537
4	78607	26445.82428637957	7542.9134464622
4	78612	26449.673797043005	7542.6392166204
4	78619	26452.554257878386	7538.115053359
4	78626	26454.372525470306	7531.8953862122
4	78637	26456.051261914185	7520.9358757877
4	78642	26457.023825609035	7513.7075396062
4	78647	26457.695591315082	7495.1484151582
4	78652	26459.708909508065	7495.400454462
4	78659	26461.34504740492	7496.712619086
4	78666	26463.321914753237	7492.6958052433
4	78683	26471.054710858481	7498.6658764669
4	78857	26527.391773241467	7551.9553832212
4	78862	26527.643675995907	7549.475853755
4	78879	26532.638427990233	7552.5874516833
4	78915	26537.902462066211	7557.3765609009
4	78929	26541.095544820532	7560.3555371551
4	78934	26545.197046657552	7562.9413445209
4	78939	26546.265318211416	7562.4661004713
4	78956	26554.113698821093	7567.0039377524
4	78973	26559.318077370382	7564.4739415237
4	78978	26562.491617836815	7564.88792253
4	78985	26566.269868644698	7563.1433279677
4	79002	26575.901380337667	7567.9474920998
4	79011	26579.475712667518	7571.427278455
4	79024	26582.032943600674	7568.7516989185
4	79042	26593.850145335461	7560.7989768482
4	79157	26624.941781770638	7584.7841227951
4	79238	26649.941118954842	7603.595713391
4	79251	26651.869302591234	7588.9684248452
4	79263	26655.69135815086	7583.3838941311
4	79268	26657.564597946942	7581.6086031958
4	79285	26662.703096943311	7580.9737219164
4	79336	26683.960057546955	7601.5278120307
4	79354	26688.462253118865	7599.167501624
4	79363	26691.882981140016	7598.2454118454
4	79374	26698.025732152706	7596.7257736456
4	79386	26708.981761101582	7606.0899811921
4	79400	26716.051507309006	7591.3829716132
4	79433	26724.969962290343	7587.8766557343
4	79456	26735.558411111223	7593.5166182665
4	79468	26738.870010760038	7592.8104396056
4	79479	26740.727107274801	7594.2692770822
4	79502	26744.799235925738	7595.8004202577
4	79507	26745.16786080112	7591.4848501682
4	79514	26749.384715100505	7571.9779110584
4	79530	26752.045737202047	7569.3753972368
4	79542	26756.231828498038	7569.8357793162
4	79549	26757.300689840739	7560.6634984177
4	79583	26768.127583895091	7565.4001850458
4	79598	26772.846068212398	7562.1242054879
4	79609	26775.698541519263	7560.6398152988
4	79681	26802.227518964648	7578.6885061404
4	79686	26803.973800316598	7577.8891779378
4	79696	26809.123908377285	7576.973257571
4	79701	26810.433897714949	7576.493276932
4	79710	26813.56986233349	7564.3272975606
4	79810	26844.477820190335	7575.1653856069
4	79817	26845.031442596023	7570.6037382332
4	79822	26845.221374289144	7568.9525217733
4	79829	26847.093283670972	7570.2470986768
4	79842	26852.423468652887	7567.4316402216
4	79874	26859.607355552837	7568.5102332291
4	79879	26859.671616655506	7565.7478711389
4	79884	26860.216033573487	7559.7545720779
4	79890	26862.191430406875	7561.6972506707
4	79897	26864.611541976302	7556.6039626148
4	79915	26867.635550488214	7557.775870666
4	79932	26876.359731346162	7561.761821766
4	80059	26921.471268790971	7604.076658333
4	80066	26922.382226004138	7582.7337897427
4	80111	26939.183627248757	7594.4965239718
4	80116	26939.498178748052	7590.6393304954
4	80121	26941.021049819847	7578.8794516949
4	80130	26943.717610935685	7570.512361207
4	80164	26954.965049664177	7581.3386155186
4	80177	26964.635910841749	7579.7918460679
4	80196	26972.900345633548	7581.1393130899
4	80218	26977.776485026003	7585.9971077635
4	80229	26980.325459694796	7586.7951514308
4	80236	26983.028427849076	7578.0333696462
4	80249	26984.916530681565	7575.292313339
4	80259	26987.808601561098	7563.9072418105
4	80291	27010.397322689653	7582.0712207202
4	80952	27245.849886987432	7812.4412269596
4	80957	27246.309886876697	7808.331621733
4	80962	27246.605457253302	7807.0953789756
4	80969	27251.855201900231	7808.3204357971
4	80976	27253.414005315075	7809.2528054712
4	80981	27254.362047147529	7808.9560419472
4	80987	27257.915285298348	7809.5298971756
4	80996	27263.86430194361	7812.3579973486
4	81014	27269.938510064013	7817.9885604663
4	81020	27272.694483065338	7811.6076790841
4	81027	27279.31613258136	7816.5110826928
4	81034	27282.562467422167	7808.3549089805
4	81043	27290.077707890157	7815.5699020413
4	81060	27297.731060928541	7819.5127523427
4	81068	27301.76328865328	7821.6551192629
4	81079	27303.794505650693	7800.9546729495
4	81086	27305.054711624161	7796.2210276069
4	81104	27313.086809386897	7799.4667553868
4	81123	27317.011272419456	7797.6513686915
4	81205	27341.044117832924	7820.1853320812
4	81229	27350.484773070276	7828.4567494884
4	81236	27351.973324962006	7816.7883836268
4	81309	27378.811967416284	7837.1320851256
4	81320	27383.719345354239	7840.0827725648
4	81346	27393.592356770593	7848.2059859309
4	81377	27403.734146966336	7857.6376605312
4	81396	27408.866886040852	7858.2716733038
4	81406	27410.02571843313	7857.1535420599
4	81417	27415.320509725223	7856.7725538519
4	81424	27415.386926961012	7849.6138041261
4	81440	27423.625691754098	7849.7360542626
4	81470	27435.903218148217	7857.2780702114
4	81495	27445.510724202146	7849.2011085174
4	81519	27454.390448928103	7851.9558008513
4	81549	27462.625596040924	7859.9447900313
4	81557	27466.41953200712	7857.9369795698
4	81570	27473.09552239399	7861.1981404087
4	81584	27478.671239037684	7851.4816015529
4	81603	27482.365685858886	7851.9207048507
4	81608	27489.383379740714	7845.552980985
4	81621	27497.469545528631	7846.1354374905
4	81638	27503.821569032242	7843.5730008847
4	81661	27514.898710776756	7849.8632919148
4	82000	27632.196013434622	7966.3712625895
4	82039	27647.745422510803	7981.8723834756
4	82044	27648.254457618644	7965.3725032895
4	82055	27656.017824334348	7958.0216292688
4	82070	27660.503884640103	7960.4808225967
4	82082	27664.315296507759	7959.2258793094
4	82090	27669.089816718292	7960.6784113418
4	82115	27676.586778065686	7959.3976300618
4	82129	27679.567820096217	7960.734182979
4	82158	27687.585201089537	7964.4184728661
4	82163	27689.191440694728	7957.385244495
4	82170	27693.370746478032	7953.1111993618
4	82193	27700.502043921152	7958.9810654371
4	82255	27725.837114902419	7969.6585829651
4	82262	27729.257333596143	7970.4021661419
4	82272	27730.548438985977	7966.2939969974
4	82277	27731.567268255579	7953.7685311045
4	82284	27734.385116742522	7946.4754674328
4	82342	27754.863432014298	7954.129234987
4	82347	27755.286505406647	7940.3874941344
4	82352	27757.761947759064	7940.2930360645
4	82361	27760.007525577685	7939.5629830568
4	82397	27775.528037557749	7954.1269543811
4	82408	27778.396587948688	7954.079556154
4	82423	27787.48566098853	7958.0944639647
4	82450	27796.113819469731	7965.6921760782
4	82472	27811.51861080015	7965.7640252859
4	82519	27825.816325114525	7976.6186717271
4	82525	27826.528709129489	7977.206302838
4	82530	27827.094051464628	7967.9596988779
4	82555	27845.634909580395	7983.2434526577
4	82614	27863.01413927506	7996.3550597181
4	82622	27864.977677012977	7989.7692601189
4	82627	27866.29416718464	7981.8585640507
4	82638	27871.797530429057	7986.7469708797
4	82660	27878.656326142559	7984.048492838
4	82669	27881.415206330239	7984.2242843264
4	82685	27884.779345056755	7987.2402995901
4	82704	27888.813377924732	7986.519360304
4	82720	27889.541644198356	7977.1517916972
4	82731	27892.133213636553	7977.2038343692
4	82762	27902.975224222924	7987.8595548317
4	82771	27903.913911885268	7985.9073927298
4	82776	27904.680020391127	7986.5556933169
4	82781	27904.919381249358	7981.1606641593
4	82788	27906.478270890228	7967.3212020538
4	82807	27914.063085919768	7964.5823338411
4	82832	27920.779511966141	7970.7888127841
4	82868	27928.005313301131	7975.5166365444
4	82880	27928.617605627033	7974.5884698021
4	82885	27932.254776226524	7969.2776189648
4	82890	27934.916496662606	7962.0278503618
4	82907	27941.19918921469	7965.6189499059
4	83031	27978.592356739145	7999.017675603
4	83036	27979.472550151718	7999.8028052893
4	83042	27980.542982124636	7996.7317085558
4	83050	27982.215400684739	7995.9251111602
4	83065	27984.18511230747	7994.9415658689
4	83076	27985.675615290395	7994.4838607812
4	83081	27987.498174529737	7992.806889354
4	83090	27992.025426910652	7985.4430976418
4	83124	28005.063861727225	7995.8385374172
4	83130	28006.480755837288	7971.8618106843
4	83146	28011.157765270896	7975.499744292
4	83263	28041.785625455309	8005.5504364001
4	83279	28043.948111064938	8006.8778221394
4	83346	28069.705956384175	8019.1694205084
4	83359	28075.336609659287	8023.7918625575
4	83379	28079.503842121145	8026.2970959819
4	83398	28085.468289360103	8031.93923297
4	83432	28094.247569440351	8035.4488030283
4	83474	28105.969009886315	8037.3471965119
4	83479	28108.493014631305	8028.4326356318
4	83484	28109.202500249778	8027.5639412596
4	83489	28110.964435270644	8025.7343608772
4	83496	28114.06760831791	8027.1798044486
4	83515	28124.857999981664	8033.9008807532
4	83539	28139.48014079775	8046.1008739552
4	83550	28141.176859288174	8044.6904935153
4	83557	28141.660863803459	8027.3418984702
4	83597	28149.830331685149	8031.2572290544
4	83602	28149.916543141949	8030.2327197488
4	83607	28149.934127631974	8027.5434803885
4	83628	28157.261083950014	8031.9272925659
4	83773	28209.790186305015	8075.8605159342
4	83826	28219.217679409853	8081.2258531252
4	83831	28219.348460444032	8079.8252199072
4	83838	28222.566290644107	8080.5449938051
4	83856	28234.577744512184	8088.0726204192
4	83869	28237.915210222129	8082.4195973872
4	83891	28248.164072366338	8092.6451956953
4	83908	28254.705700536206	8095.6799438346
4	83943	28260.512757748237	8097.6469991452
4	84027	28282.868272932661	8116.75498855
4	84036	28285.756194900041	8113.0885459234
4	84047	28286.203571865017	8104.8120023528
4	84072	28296.013944212934	8100.541074919
4	84164	28313.785642811198	8114.6358314518
4	84169	28314.570469087192	8112.3985900816
4	84182	28321.306967677209	8118.4488963308
4	84198	28323.848099199391	8104.9549467893
4	84208	28327.64596276796	8105.2668389467
4	84229	28336.451922144528	8111.9504363696
4	84241	28337.596581846842	8103.9800777664
4	84253	28345.540237525603	8106.9589955302
4	84262	28351.098294991589	8103.5382627103
4	84322	28366.944838281861	8111.765636621
4	84327	28366.985093075113	8110.9460458833
4	84339	28371.911480164462	8107.4854724233
4	84368	28385.377997830621	8119.1695631178
4	84384	28388.799394973741	8114.3274291461
4	84415	28399.337025718529	8120.595680476
4	84441	28406.361467493679	8127.1100350281
4	84457	28413.945558234275	8123.5211968692
4	84494	28419.170476414281	8123.3076363443
4	84499	28420.679543575699	8118.1460935433
4	84511	28427.090806967337	8120.679728013
4	84527	28428.891319925769	8121.462214283
4	84532	28431.218205893275	8119.7423561131
4	84545	28434.973972047003	8121.7628508854
4	84626	28457.241621761809	8136.0444213985
4	84632	28458.760147004607	8127.6784993509
4	84645	28465.999810526271	8129.6178014923
4	84817	28534.738132994317	8198.2411835989
4	84822	28535.426115294091	8196.5229788902
4	84832	28541.195532241561	8201.1110197074
4	84849	28544.266934685025	8188.6004148355
4	84867	28551.833828337472	8195.61202471
4	84967	28576.188313843883	8219.0811687305
4	84976	28578.987600033532	8215.1386337266
4	85008	28586.021123722861	8216.0136329918
4	85019	28593.499881157564	8210.5460923157
4	85098	28612.7039464316	8209.3132804599
4	85108	28613.014318926108	8203.1223971564
4	85114	28617.478361508616	8180.9656909745
4	85121	28622.08020614122	8182.21476815
4	85138	28630.482344799394	8172.6165746513
4	85202	28652.175485760469	8188.6150935229
4	85216	28656.165176994038	8186.4101080379
4	85225	28657.411554757923	8183.4677951889
4	85255	28664.428380956141	8169.9603586749
4	85347	28699.490731640077	8192.8390507299
4	85357	28702.95624860533	8195.4495400302
4	85372	28705.889440972721	8185.7163468776
4	85393	28712.691465099213	8188.6080564984
4	85414	28719.59624283138	8195.3925395645
4	85420	28720.491706245196	8195.3052432095
4	85425	28722.623983529084	8193.4802426195
4	85432	28725.245441035121	8192.0486278433
4	85453	28733.302204097104	8193.3443003298
4	85513	28753.433637048205	8212.5821848439
4	85518	28753.838727550344	8208.3016573302
4	85523	28755.754642626444	8196.6787185062
4	85528	28756.178186873496	8196.8148499642
4	85538	28758.572015164918	8186.7260442375
4	85550	28760.146097098369	8180.1835858526
4	85557	28765.29394090389	8173.7507769582
4	85570	28775.000024887381	8176.6937978576
4	85587	28778.759737389964	8178.3430627268
4	85592	28781.596703524236	8180.1645336279
4	85599	28784.444585884869	8178.840328408
4	85612	28786.978207799173	8179.8257122666
4	85624	28791.950782323808	8182.8880326942
4	85633	28794.651412586954	8178.9240068525
4	85658	28805.308861155231	8186.6520943776
4	85678	28809.965960647211	8191.1157740266
4	85704	28818.165331046135	8195.122279918
4	85711	28819.222786634191	8185.7798686775
4	85723	28822.125617960611	8176.4768759146
4	85728	28822.317818195235	8174.5734673717
4	85733	28823.675065842431	8171.8910437067
4	85738	28826.499353593338	8169.9007293641
4	85743	28828.037169945829	8169.7379974633
4	85752	28831.043287209419	8171.3041947519
4	85765	28835.686374175643	8170.9249647504
4	85787	28849.241316771109	8175.0362121843
4	85849	28859.970855082878	8185.5489345774
4	85854	28860.77317770591	8185.1123181824
4	85861	28863.373413841221	8182.1896821286
4	85880	28870.818749243035	8185.2142476524
4	85885	28871.501523920235	8185.09711358
4	85890	28871.766349873877	8184.9503425631
4	85899	28874.571052758445	8155.6567909977
4	85952	28889.87435476924	8170.9012531595
4	86000	28906.337746900486	8176.0042572085
4	86014	28908.74531327917	8174.3613185809
4	86025	28909.661205492422	8170.3786942508
4	86032	28915.156713965698	8175.1179580282
4	86041	28924.501603009412	8179.0721983878
4	86098	28937.326078059898	8191.2244052026
4	86106	28939.531240339128	8185.4671447298
4	86123	28945.042759207353	8190.1166773977
4	86146	28955.92690914546	8198.669427873
4	86183	28965.332238242378	8206.085111113
4	86270	28987.644284240474	8226.8955032197
4	86280	28995.868107263527	8227.3845474738
4	86292	28999.538846457913	8222.6068588179
4	86314	29004.914473978166	8222.7236009669
4	86321	29007.392388007753	8213.5337466435
4	86333	29013.167757414505	8214.7421603974
4	86340	29017.823951376802	8209.4759954071
4	86362	29023.179321349229	8211.0568928088
4	86380	29027.1389644611	8211.9120660817
4	86408	29033.798446575756	8217.6531643144
4	86421	29037.528100409958	8219.4731550976
4	86431	29040.645062385414	8221.4658306081
4	86438	29044.470451190226	8224.2872609764
4	86470	29050.952179364534	8217.7471420445
4	86537	29068.451342963612	8228.8923606542
4	86547	29072.059676015775	8227.7348147447
4	86553	29074.027616584057	8226.6095926623
4	86558	29075.185118911049	8220.629807339
4	86565	29079.064964315211	8216.2039560817
4	86581	29083.948002871431	8214.4826536093
4	86616	29095.514962437168	8219.1809559131
4	86623	29095.631085901677	8214.063758199
4	86641	29104.941109668736	8220.2961954767
4	86668	29112.843656024673	8220.4276078658
4	86801	29148.249935670666	8252.4961599332
4	86811	29151.990254069838	8248.0133349095
4	86870	29172.763355381206	8260.039584228
4	86875	29174.083222774315	8249.6761027287
4	86880	29175.020613668996	8229.7627018722
4	86886	29176.493541190683	8220.5191561199
4	86906	29188.440418796208	8226.4456272464
4	86968	29208.2293859199	8240.284581752
4	86975	29212.184927771093	8241.9457541443
4	86981	29214.857324104039	8243.6183575865
4	87000	29221.299357265175	8242.726149457
4	87024	29225.942259500829	8246.057910816
4	87084	29241.203480854381	8257.7973525218
4	87105	29257.043598283216	8240.3729187996
4	87134	29264.279084868858	8247.078915159
4	87157	29273.32764377606	8247.2553676305
4	87196	29283.091516870874	8253.1261732668
4	87202	29284.916420315575	8244.8133867091
4	87223	29296.380555236675	8248.8211021838
4	87301	29322.661555426627	8270.8371263009
4	87314	29324.933743915392	8272.8982697608
4	87326	29326.642632005223	8273.3501342777
4	87332	29329.165485271734	8274.2712370539
4	87341	29331.48983718466	8268.0250874357
4	87351	29338.205080386037	8261.1733140396
4	87373	29348.183548180165	8267.3654535088
4	87541	29411.506392093716	8329.5096369386
4	87546	29413.68997244808	8330.0519548427
4	87551	29414.905568868663	8327.4480168279
4	87562	29416.857778763342	8325.4318644518
4	87586	29423.539820986913	8329.6091326927
4	87611	29431.937338601906	8331.7427029423
4	87616	29432.62491156712	8308.5798190816
4	87629	29437.542098318063	8313.0209260749
4	87647	29442.545626675485	8314.1209017719
4	87660	29447.007304926849	8317.4893013941
4	87694	29455.904462814317	8324.1003509183
4	87699	29456.242201053283	8314.6903142286
4	87715	29460.746041097581	8317.7100396155
4	87747	29470.700027082633	8316.2053034485
4	87848	29492.534004309768	8335.1399926722
4	87862	29496.408979976005	8324.661052403
4	87872	29497.074384932444	8324.922390822
4	87878	29498.260459512247	8316.6961629915
4	87883	29498.738379895697	8313.3622118529
4	87895	29504.874616738221	8311.944681717
4	87918	29507.6927079352	8304.8020837594
4	87943	29524.075254160749	8318.7153963326
4	87978	29541.778140762352	8328.5552897323
4	88013	29550.387423912206	8327.0422916593
4	88018	29550.656893154439	8309.1559911304
4	88023	29550.787087167015	8304.7908636974
4	88034	29555.488901822834	8307.8864777574
4	88054	29563.418639747282	8306.822398334
4	88065	29568.481295503922	8299.2002385056
4	88139	29587.235683460268	8317.8759163239
4	88152	29589.145290667661	8319.6085005907
4	88169	29592.545556382018	8317.175324272
4	88180	29596.552519851966	8318.9288353597
4	88206	29604.393317598946	8321.4356293372
4	88265	29623.567210480991	8337.9169291278
4	88277	29625.240479306956	8324.8003799861
4	88316	29634.0008354365	8333.2359272245
4	88925	29839.988476708575	8534.1244695189
4	88932	29840.43909295377	8532.1001330467
4	88941	29847.349874926792	8531.6695283681
4	88960	29851.545186527989	8529.3635890468
4	89010	29882.594591602046	8555.8253918288
4	89132	29928.00662978924	8600.9055721659
4	89178	29941.41379972618	8610.0435657793
4	89183	29942.441029919963	8608.3027202284
4	89188	29942.608191517615	8596.9459897321
4	89193	29944.494876943734	8594.0401320992
4	89198	29945.071089317976	8590.8772871167
4	89207	29947.038176682322	8583.7030149992
4	89234	29951.448494569534	8583.1587898605
4	89271	29958.539772362056	8587.3171519248
4	89276	29958.70408952078	8587.3166655352
4	89284	29961.606522877278	8588.8496731973
4	89302	29965.245775669659	8590.6747839307
4	89400	29994.438426117229	8617.731669021

