version 2
run Third-n4-16-20191016-17:05:08-15056
attr configname Third-n4
attr datetime 20191016-17:05:08
attr experiment Third-n4
attr inifile omnetpp.ini
attr iterationvars ""
attr iterationvarsf ""
attr measurement ""
attr network org.omnetpp.queueing.Pizza
attr processid 15056
attr repetition 16
attr replication ""
attr resultdir results
attr runnumber 16
attr seedset 16
param **.PS.maxInventoriedPS 4
param **.U1.interArrivalTime exponential(4s)
param **.U2.interArrivalTime exponential(6s)
param **.PS.serviceTimeForInventoryU1 exponential(1.4s)
param **.PS.serviceTimeForInventoryU2 exponential(1.4s)
param **.PS.serviceTimeDirectU1 exponential(1.8s)
param **.PS.serviceTimeDirectU2 exponential(1.8s)
param **.PS.probabilityProducing 0.8
param **.CS.serviceTimeU1 exponential(2.3s)
param **.CS.serviceTimeU2 exponential(2.3s)

vector 0 Pizza.EntryQueueU1 queueLength:vector ETV
attr interpolationmode sample-hold
attr title "queue length, vector"
vector 1 Pizza.CS queueLength:vector ETV
attr interpolationmode sample-hold
attr title "queue length, vector"
vector 2 Pizza.EntryQueueU2 queueLength:vector ETV
attr interpolationmode sample-hold
attr title "queue length, vector"
vector 3 Pizza.sink lifeTime:vector ETV
attr interpolationmode none
attr title "lifetime of arrived jobs, vector"
attr unit s
vector 4 Pizza.sink lifeTimeU1:vector ETV
attr interpolationmode none
attr title "lifetime of arrived jobs, vector"
attr unit s
vector 5 Pizza.sink lifeTimeU2:vector ETV
attr interpolationmode none
attr title "lifetime of arrived jobs, vector"
attr unit s
0	0	0	0
0	16	3.973083641955	1
0	21	4.688305459949	2
0	25	8.005835543379	3
0	27	8.754840503303	2
0	35	9.752920377972	1
0	41	11.188382451189	0
0	47	11.325688939559	1
0	49	12.550173686825	0
0	66	16.236896248079	1
0	68	16.413605615971	2
0	70	16.65733032699	3
0	73	18.476806861035	2
0	81	21.829136034085	1
0	88	22.241818985298	2
0	89	23.215433284738	1
0	96	24.419662488501	2
0	97	25.872531891729	1
0	104	26.762943769955	2
0	105	28.062488613259	1
0	110	28.35048859246	0
0	119	31.447245134946	1
0	121	31.743724336993	0
0	127	32.048870084788	1
0	131	33.105854775215	2
0	133	34.372874716712	3
0	134	35.245391585846	2
0	139	35.803413400335	1
0	146	39.089838351301	0
0	155	40.144669053184	1
0	156	41.618506624173	0
0	165	43.655355731533	1
0	166	43.854634350797	0
0	197	57.964066768189	1
0	198	60.760488206425	0
0	210	64.875713653044	1
0	212	65.764103176548	2
0	215	66.260807820046	1
0	221	67.213656344307	0
0	243	85.35749917949	1
0	245	86.794560982346	2
0	248	88.975294879797	1
0	255	89.226586755884	2
0	258	93.02871465506	1
0	263	93.191463291907	0
0	285	98.851316303997	1
0	287	99.783018930036	2
0	292	103.995832293774	3
0	293	106.303874338333	2
0	300	106.865854556608	3
0	301	107.625200252723	2
0	306	108.340031041051	1
0	313	110.531790017202	2
0	317	116.313903656084	1
0	323	117.074727709767	0
0	334	117.436301975092	1
0	336	117.44424746765	2
0	341	118.50807775978	1
0	348	120.303300891263	0
0	367	123.878128989614	1
0	369	124.014141461268	2
0	378	128.949061574927	1
0	383	129.369769189259	0
0	397	133.083652027767	1
0	399	133.843909557419	0
0	405	134.753589103638	1
0	407	135.765060860462	2
0	410	139.098725700687	1
0	417	140.44538988049	0
0	423	141.728065843658	1
0	426	143.352085918596	0
0	466	152.356088636802	1
0	468	152.574518779877	2
0	470	153.709689289591	3
0	471	157.72492221703	2
0	479	159.655567500538	1
0	487	163.681687518528	0
0	494	167.338021834734	1
0	497	169.339006942553	0
0	509	171.276306820466	1
0	510	172.623375757432	0
0	517	175.540786337098	1
0	519	176.392512821462	2
0	521	178.490439984214	3
0	524	182.745400573644	2
0	530	182.961424683517	3
0	532	183.663099958193	4
0	534	183.687052988661	5
0	535	185.072997083777	4
0	544	189.077893031143	3
0	552	190.046945507186	2
0	557	190.999428572119	1
0	562	191.520541134364	0
0	574	192.383673479436	1
0	575	193.248684188855	0
0	592	198.440972611378	1
0	593	198.592482296902	0
0	608	201.066400163006	1
0	611	203.076423137217	0
0	627	207.306752338471	1
0	630	207.955651849443	0
0	647	212.508590834371	1
0	651	213.404245297429	2
0	652	213.641367217463	1
0	660	216.306509304343	0
0	676	217.211839675692	1
0	678	219.078479386399	0
0	701	228.569303415037	1
0	707	231.930095528661	2
0	709	233.224592741006	3
0	713	234.480707545474	4
0	714	234.885055497087	3
0	719	234.984089598854	2
0	727	235.961190080474	3
0	731	239.473071158729	4
0	734	241.75377309405	3
0	740	242.499391280162	2
0	746	245.528412491049	1
0	752	246.158730186724	2
0	758	251.463262325219	1
0	768	255.128273633063	0
0	777	256.34415358602	1
0	780	258.85096002645	0
0	804	263.267744802699	1
0	805	263.999027119693	0
0	815	265.778058839827	1
0	819	266.205527730734	2
0	821	268.159642232556	1
0	830	269.806234107459	2
0	832	270.109503135569	3
0	836	271.263970388582	2
0	841	273.263239436866	1
0	850	274.032538770086	0
0	864	278.126868241188	1
0	866	278.604311299637	2
0	867	279.003945866902	1
0	872	279.174033178821	0
0	880	280.87896876506	1
0	881	281.379762898827	0
0	887	281.56142211749	1
0	892	282.352146394884	2
0	893	287.527209488717	1
0	898	287.587575150971	0
0	923	293.92485322418	1
0	925	294.116554919944	2
0	926	295.422143520479	1
0	931	297.138095503884	0
0	947	300.239823650522	1
0	955	303.678382379931	2
0	960	308.681497495231	3
0	961	312.34377044044	2
0	967	312.773868400681	1
0	974	316.285700188748	2
0	975	317.778174897851	1
0	981	317.876519868498	0
0	988	318.41044174907	1
0	991	319.36150805537	0
0	1031	330.168912343633	1
0	1032	330.33361726436	0
0	1046	333.045797058329	1
0	1048	334.150735789397	2
0	1049	337.716126332021	1
0	1060	340.149490456942	2
0	1061	340.294843421993	1
0	1067	340.506473249535	2
0	1068	341.286487277867	1
0	1073	341.566055285935	0
0	1081	342.645631408975	1
0	1086	345.729234025762	2
0	1087	346.334983779692	1
0	1094	346.805158972122	2
0	1096	347.514010965408	3
0	1103	349.955582829645	2
0	1108	350.018789261892	1
0	1114	352.507010859267	2
0	1115	355.952235282047	1
0	1120	356.530478020497	0
0	1127	357.181779644561	1
0	1130	357.44609377804	2
0	1132	357.979057124647	3
0	1139	362.032119639045	4
0	1140	362.333112392178	3
0	1147	363.373318635196	2
0	1153	363.679202487647	3
0	1155	364.340741069342	4
0	1157	364.564012267589	5
0	1159	364.730045397467	6
0	1161	367.935633493739	7
0	1164	370.288501430733	6
0	1173	373.165454894214	5
0	1182	375.532350341842	4
0	1187	375.612814048778	3
0	1192	376.346458737677	2
0	1198	377.879198556626	3
0	1200	377.975372070319	2
0	1205	378.39369560696	1
0	1211	380.285692250768	2
0	1214	380.37754037642	1
0	1221	383.304164339636	0
0	1240	386.586027136327	1
0	1241	387.175554836284	0
0	1261	390.435635081688	1
0	1262	390.690317597606	0
0	1278	396.185869424589	1
0	1282	398.569581469477	2
0	1286	400.960049265983	3
0	1287	403.187496355604	2
0	1293	403.592273756684	3
0	1294	403.948933817483	2
0	1301	404.755861960955	1
0	1309	406.525285524426	2
0	1310	406.697396605739	1
0	1315	408.478789936118	0
0	1319	410.798713613091	1
0	1321	410.828249266937	2
0	1327	413.662173316599	1
0	1335	416.591149349421	0
0	1346	417.847914729207	1
0	1349	419.338414896766	2
0	1353	420.284263278583	1
0	1363	425.222107353694	2
0	1365	426.984291401776	3
0	1368	427.890552948742	2
0	1375	429.671460744863	1
0	1381	430.298308530475	0
0	1414	435.022234678816	1
0	1417	435.951828139366	0
0	1427	439.981517296098	1
0	1428	440.2126889778	0
0	1437	442.414239996566	1
0	1438	445.056447696669	0
0	1446	446.184460351409	1
0	1448	446.926625968093	2
0	1449	448.411628141043	1
0	1455	449.679336085401	0
0	1477	456.382332020052	1
0	1479	457.269293264341	2
0	1480	459.8245100588	1
0	1487	461.35282469234	0
0	1505	473.090754869052	1
0	1514	477.506816598507	0
0	1538	481.941297742194	1
0	1542	483.51967425645	2
0	1544	484.888867057239	3
0	1546	488.607526295342	2
0	1552	489.675890533207	3
0	1553	489.752928056498	2
0	1560	493.069340807514	1
0	1566	493.136985648242	2
0	1569	493.248209621433	1
0	1574	495.763029790627	0
0	1585	498.051182360345	1
0	1586	498.124138379201	0
0	1605	500.040205292006	1
0	1610	501.001863370627	2
0	1611	501.017098615571	1
0	1617	501.275152408594	2
0	1621	502.981561622619	3
0	1625	503.338412356088	4
0	1626	504.290258152933	3
0	1631	504.301425875185	2
0	1637	504.314715975217	3
0	1641	511.084643587679	2
0	1646	511.175359446851	1
0	1652	513.143427806369	0
0	1677	518.745898006604	1
0	1680	520.214300256742	0
0	1690	526.061252523857	1
0	1697	529.676718019391	2
0	1698	530.65093823817	1
0	1704	531.465727766045	0
0	1712	532.347110878725	1
0	1714	532.928762487628	2
0	1715	533.362975990977	1
0	1722	535.254581726326	0
0	1735	537.035628252287	1
0	1737	539.997173239104	0
0	1752	543.519496964876	1
0	1753	545.98892116733	0
0	1759	546.09250072704	1
0	1761	546.963574584848	2
0	1764	547.930394152051	3
0	1766	548.066061087035	4
0	1770	553.967487055387	5
0	1772	555.754981642357	6
0	1773	555.847958530554	5
0	1781	557.390040596396	6
0	1784	557.517248918285	5
0	1789	559.11591579452	4
0	1796	561.023792393415	5
0	1802	564.537587356508	6
0	1806	567.910938130125	7
0	1807	568.502752945167	6
0	1816	569.240013360423	7
0	1817	570.192769044794	6
0	1822	570.824235605285	5
0	1829	572.933224855559	4
0	1834	573.461298678661	3
0	1841	574.90382977983	2
0	1847	577.623363594762	3
0	1848	578.099268003169	2
0	1856	580.064503935172	3
0	1857	580.387462820456	2
0	1863	582.004493456141	1
0	1868	582.541794672805	0
0	1881	586.061375021883	1
0	1883	586.690381317887	2
0	1885	587.120757873365	3
0	1887	587.40567086815	4
0	1889	588.626693820654	5
0	1890	589.451487560288	4
0	1899	591.286122718083	3
0	1906	591.961267943913	2
0	1912	592.177201790816	3
0	1916	593.535671948114	4
0	1918	595.768448254778	3
0	1931	600.278668757193	4
0	1932	601.738903809836	3
0	1938	601.994623129991	4
0	1941	602.760404985467	3
0	1946	603.588875615442	2
0	1955	605.725647523211	1
0	1960	605.753995537627	0
0	1966	606.249406682935	1
0	1968	610.629261212594	0
0	1992	618.555588123123	1
0	1993	619.427438210802	0
0	2018	623.112408566167	1
0	2019	624.005251065392	0
0	2025	624.365030995014	1
0	2027	624.969510628594	2
0	2030	627.332227758041	3
0	2031	628.975648418923	2
0	2036	628.996252514873	1
0	2045	632.685779185707	0
0	2065	641.907241751887	1
0	2066	642.486609896907	0
0	2077	645.31818337083	1
0	2081	648.585771255251	0
0	2093	650.385268389362	1
0	2094	650.927402750142	0
0	2108	653.214879810123	1
0	2110	655.652605433553	0
0	2126	661.629812419616	1
0	2128	662.966951337645	0
0	2146	667.43244466053	1
0	2148	669.154454128875	2
0	2153	672.697557840569	1
0	2162	673.911768137836	0
0	2174	675.288635912136	1
0	2177	676.415444972306	0
0	2199	681.67147152526	1
0	2200	681.695056920028	0
0	2209	682.452878962992	1
0	2212	683.699689271051	0
0	2219	684.634129630435	1
0	2221	685.986007234965	0
0	2244	689.502577712355	1
0	2246	690.646705306554	0
0	2252	690.895868161199	1
0	2253	692.55811540245	0
0	2260	694.823107250721	1
0	2264	696.589045426124	2
0	2266	697.899532170237	1
0	2271	698.310933634156	0
0	2305	708.76835133109	1
0	2308	709.711717525965	0
0	2314	709.760495533177	1
0	2318	711.170505215997	0
0	2333	721.206704510671	1
0	2335	721.304795742425	2
0	2336	723.443396576419	1
0	2341	723.817768994932	0
0	2358	728.411572541863	1
0	2360	728.819675392423	2
0	2362	729.47864023765	3
0	2367	730.472353213938	2
0	2375	732.893325237976	3
0	2376	737.129185846105	2
0	2384	740.040957273649	1
0	2392	741.548168242388	0
0	2400	744.457468240039	1
0	2402	744.788810446159	0
0	2414	745.417704851426	1
0	2415	745.97815164968	0
0	2428	747.735744672458	1
0	2429	747.739387294118	0
0	2449	754.076171339719	1
0	2451	754.692691699295	2
0	2454	755.7101334317	1
0	2460	758.362979107938	0
0	2472	762.145805792604	1
0	2474	762.179435326852	2
0	2476	762.48282462182	3
0	2478	762.714780490323	4
0	2479	769.206975200326	3
0	2484	769.390426764498	2
0	2491	771.811816054269	1
0	2497	772.566520106558	0
0	2503	773.24969942071	1
0	2513	778.367584911001	0
0	2526	782.339192927376	1
0	2527	784.774631388518	0
0	2533	785.846053459933	1
0	2534	787.986116851278	0
0	2545	790.294433988858	1
0	2548	792.260662655609	2
0	2549	792.639566152275	1
0	2555	794.521335783573	0
0	2564	794.961636378618	1
0	2566	795.176197475925	2
0	2571	799.7745112658	1
0	2576	800.405104343375	0
0	2594	810.885058428987	1
0	2598	815.246858413892	2
0	2599	815.248061815486	1
0	2608	820.029891878887	0
0	2622	822.830675254488	1
0	2626	825.760951930393	2
0	2629	827.830789904151	1
0	2635	828.465071976697	0
0	2641	829.072767681514	1
0	2642	829.376699721421	0
0	2648	829.447814769862	1
0	2654	830.820286478291	2
0	2656	831.322667214813	3
0	2659	833.90589145464	2
0	2665	837.782451335281	1
0	2670	838.503459340882	0
0	2692	842.969563452652	1
0	2693	843.083266308668	0
0	2702	844.825271758391	1
0	2704	844.857883148782	2
0	2714	850.777384609156	1
0	2720	851.79551281033	2
0	2725	853.118209805189	3
0	2727	853.227577177587	4
0	2729	858.655324278906	3
0	2737	859.885261204347	2
0	2742	862.063179840731	1
0	2752	865.070796361762	0
0	2762	867.237988946499	1
0	2764	868.037014118907	0
0	2775	871.784235554889	1
0	2778	872.388615897732	0
0	2786	878.404367140617	1
0	2788	878.624242601394	0
0	2800	881.22745368862	1
0	2801	882.601576902696	0
0	2808	883.545194013469	1
0	2813	888.876773533105	0
0	2832	893.04394839421	1
0	2834	893.31421240936	2
0	2835	893.980240908558	1
0	2841	894.353779085851	2
0	2847	895.975367479829	3
0	2849	901.239711137104	2
0	2856	902.211374273871	3
0	2858	903.918037812104	4
0	2859	905.418685036559	3
0	2864	906.44094440031	2
0	2871	911.056505016768	1
0	2879	913.541877067548	0
0	2888	914.623658259171	1
0	2889	918.64942044326	0
0	2896	919.67333729998	1
0	2898	920.782471500782	0
0	2912	925.419338441917	1
0	2914	925.424086382578	2
0	2916	925.860892832332	3
0	2918	929.176219838021	4
0	2920	930.167212976606	5
0	2922	932.354847476505	6
0	2924	936.886959596238	7
0	2926	937.463812842973	8
0	2930	938.574055750536	9
0	2932	938.783255031979	10
0	2935	940.712062170303	9
0	2941	944.296782204585	8
0	2947	944.657193878333	9
0	2952	947.430537687599	10
0	2954	948.546711348235	11
0	2957	951.43898996273	10
0	2966	954.734694531029	11
0	2970	955.926828625661	12
0	2974	957.289596360347	13
0	2975	958.554694197357	12
0	2980	959.390566526861	11
0	2986	961.249088311275	10
0	2994	963.309373415894	9
0	2999	964.637548462336	8
0	3009	969.377769181348	9
0	3012	970.717570586054	10
0	3013	972.424477448798	9
0	3020	973.859945524408	10
0	3021	974.238265326073	9
0	3028	976.017671895328	10
0	3030	978.011468488575	11
0	3032	981.483045921156	12
0	3033	981.846347028079	11
0	3038	982.254040326697	10
0	3043	983.120506328936	9
0	3050	984.434279583336	8
0	3055	984.636246887288	7
0	3061	985.859694699541	8
0	3063	987.166802216505	9
0	3065	987.239557625322	10
0	3067	988.016962261956	9
0	3074	989.285507808242	8
0	3081	991.58155131186	9
0	3083	992.050212741699	8
0	3089	992.461025323027	9
0	3091	992.55976648056	10
0	3093	992.92409630242	11
0	3095	993.062019674655	12
0	3096	993.303620055856	11
0	3101	993.313205824595	10
0	3106	993.896172559013	9
0	3113	997.725954485954	8
0	3117	998.192451869261	9
0	3120	1000.273859269305	8
0	3127	1004.098754092757	7
0	3137	1009.004541115667	6
0	3145	1011.163600455321	7
0	3146	1011.614630700827	6
0	3151	1012.172849711662	5
0	3159	1014.949932812226	6
0	3160	1017.46541444731	5
0	3166	1018.031644546628	4
0	3173	1021.923768006258	3
0	3179	1023.825929054441	4
0	3183	1027.351170461857	5
0	3184	1028.189719020135	4
0	3189	1028.530672641264	3
0	3195	1028.612785762642	4
0	3196	1029.459634728268	3
0	3210	1032.482046813688	4
0	3212	1033.649248835051	5
0	3213	1034.112212731489	4
0	3219	1035.471220167314	5
0	3221	1035.672548702654	6
0	3226	1037.154999951075	7
0	3227	1037.287730287933	6
0	3233	1038.298323766308	5
0	3241	1042.121268559793	4
0	3250	1047.508580716739	5
0	3252	1052.021680924111	6
0	3255	1053.382260332263	5
0	3261	1053.833067810614	6
0	3262	1054.834417359276	5
0	3267	1055.712659706802	4
0	3274	1057.428396415252	5
0	3283	1064.981403324955	4
0	3290	1065.235097332095	3
0	3295	1065.795957989165	2
0	3304	1067.539777329165	3
0	3306	1070.526299941065	2
0	3316	1076.134071338345	3
0	3317	1076.877017277103	2
0	3323	1078.10323547677	1
0	3330	1079.198505019453	0
0	3343	1080.049303913635	1
0	3344	1081.35450478337	0
0	3350	1081.902095327903	1
0	3352	1082.497457308869	2
0	3355	1083.328231993838	3
0	3356	1085.054510973563	2
0	3361	1086.181633161371	1
0	3368	1087.123920574561	2
0	3375	1089.697716510948	3
0	3379	1090.646710283758	4
0	3381	1091.724861522024	5
0	3382	1091.961156285688	4
0	3391	1093.737942432489	5
0	3392	1093.884438540675	4
0	3398	1094.247156810391	5
0	3401	1096.879490509625	6
0	3404	1098.227817905286	5
0	3411	1098.806864363976	6
0	3412	1099.678613622881	5
0	3417	1100.245187752383	4
0	3423	1103.124491402378	5
0	3425	1105.491917597169	4
0	3430	1106.278154494001	3
0	3436	1108.173974564585	2
0	3441	1108.408535808825	1
0	3456	1118.142858074575	0
0	3468	1119.416728388322	1
0	3472	1121.178903946232	2
0	3473	1121.399287716633	1
0	3480	1127.004708054528	2
0	3481	1129.518067588163	1
0	3486	1132.802195330461	0
0	3493	1134.170635453627	1
0	3495	1135.154588568579	0
0	3517	1137.852571745033	1
0	3518	1140.538426824536	0
0	3533	1149.016819485793	1
0	3536	1150.792568475814	0
0	3542	1151.018731803815	1
0	3543	1152.24667401846	0
0	3549	1153.175026369009	1
0	3550	1155.939821423166	0
0	3559	1157.25574748601	1
0	3564	1159.851469033919	2
0	3569	1163.875686474218	3
0	3576	1166.634162299362	4
0	3579	1170.426512178942	3
0	3585	1172.708349114023	2
0	3591	1174.712529029325	1
0	3597	1175.565142269172	0
0	3621	1181.019007893969	1
0	3624	1183.114696763522	2
0	3626	1183.429821163386	3
0	3627	1183.633843366941	2
0	3632	1184.403244267423	1
0	3638	1186.185334092081	0
0	3648	1187.555408139654	1
0	3650	1189.00359382154	2
0	3652	1189.525530080365	3
0	3656	1192.838927360695	2
0	3662	1193.669091653661	3
0	3663	1193.93565798577	2
0	3669	1194.772799862343	1
0	3677	1195.920755702957	2
0	3680	1196.009349642726	1
0	3686	1197.18770216416	0
0	3707	1200.971202378524	1
0	3708	1201.85900673081	0
0	3722	1206.366952657366	1
0	3726	1207.761918326871	2
0	3733	1214.617607746447	1
0	3741	1216.573843322069	2
0	3743	1216.848703036158	3
0	3744	1217.954486409434	2
0	3753	1221.798163963726	3
0	3755	1224.630184420819	4
0	3757	1226.409319165746	5
0	3758	1226.699807995642	4
0	3766	1227.912207104109	5
0	3768	1230.105274136509	6
0	3770	1230.590555936307	5
0	3775	1232.327717838091	4
0	3780	1233.855233787557	3
0	3785	1234.073074236783	2
0	3791	1234.810499063416	3
0	3793	1236.329514031913	4
0	3795	1237.518989352732	3
0	3800	1238.655522586007	2
0	3809	1241.794202636384	1
0	3814	1243.454409709169	0
0	3820	1245.319435066446	1
0	3822	1245.862499835919	0
0	3845	1250.59539925525	1
0	3848	1252.556309806338	2
0	3851	1253.695976149492	1
0	3856	1254.153450316531	0
0	3893	1260.248372981785	1
0	3895	1260.674871783399	2
0	3897	1264.04087313699	3
0	3898	1264.311178622274	2
0	3906	1264.570420808262	1
0	3911	1264.685144035713	0
0	3923	1269.511531639033	1
0	3924	1270.138609781163	0
0	3930	1271.657154770154	1
0	3933	1274.566906553694	2
0	3935	1274.715064295327	3
0	3937	1275.508745971278	4
0	3939	1278.610602007976	5
0	3941	1280.044149883403	6
0	3943	1282.136257259337	7
0	3945	1282.461611273702	8
0	3947	1283.796377269298	9
0	3949	1284.64423176822	10
0	3951	1284.934764588739	11
0	3955	1288.073215042402	12
0	3956	1289.797602147963	11
0	3965	1292.747846226332	12
0	3968	1297.580259952454	11
0	3973	1299.051394150853	10
0	3978	1299.154316167821	9
0	3984	1299.936360879398	8
0	3990	1301.240897650888	7
0	3998	1302.99506594955	8
0	4002	1306.381582371201	7
0	4007	1306.969952817968	6
0	4016	1309.768758144492	5
0	4022	1309.919446473183	6
0	4023	1310.166016303543	5
0	4029	1310.796794394882	6
0	4033	1313.364289598806	7
0	4039	1314.155556704784	8
0	4042	1314.836721984247	7
0	4052	1318.373192096182	6
0	4058	1318.967550289587	7
0	4059	1320.224015235258	6
0	4072	1324.642542226549	5
0	4077	1326.760822094012	4
0	4082	1326.804268828518	3
0	4089	1327.962891916199	2
0	4094	1328.659157361974	1
0	4102	1331.992045420932	2
0	4107	1333.977428715098	1
0	4113	1335.356255975074	0
0	4124	1336.522472044111	1
0	4127	1337.831473677252	0
0	4131	1338.033705241293	1
0	4133	1338.062154519216	2
0	4137	1338.55872574718	3
0	4138	1339.649656486962	2
0	4144	1343.101383117908	1
0	4149	1343.286478774021	0
0	4155	1344.662016739891	1
0	4156	1347.563448967123	0
0	4162	1348.466515981532	1
0	4165	1349.337946715038	0
0	4169	1349.730482611757	1
0	4184	1357.675435329212	2
0	4185	1359.321576824691	1
0	4191	1359.443168488937	2
0	4193	1359.748488672073	1
0	4198	1360.118751704472	0
0	4237	1370.826978551554	1
0	4241	1371.028972113084	2
0	4242	1372.335476439904	1
0	4250	1373.449730182598	2
0	4251	1373.562263697006	1
0	4257	1374.471090081653	0
0	4265	1375.62674446201	1
0	4267	1376.024917780393	2
0	4269	1376.899403788124	1
0	4274	1376.985915792616	0
0	4285	1377.149939304457	1
0	4287	1377.297389545105	2
0	4288	1378.021543659107	1
0	4294	1380.164379880591	0
0	4309	1383.058430407095	1
0	4311	1383.192416109844	2
0	4319	1389.723638473863	3
0	4322	1391.032727605673	4
0	4324	1391.780805570085	3
0	4330	1391.803962581538	4
0	4331	1392.384520656106	3
0	4336	1394.655005209552	2
0	4343	1396.588059495966	3
0	4344	1396.63945729196	2
0	4350	1397.480283957627	1
0	4357	1397.771069775982	2
0	4361	1399.033952931995	3
0	4365	1401.463891463803	4
0	4366	1401.532712830389	3
0	4371	1402.029557458803	2
0	4376	1402.791040388973	1
0	4385	1404.616675538217	2
0	4387	1405.739332650093	3
0	4389	1407.019577273563	4
0	4390	1411.277857005344	3
0	4397	1413.725498858873	2
0	4402	1414.241258209063	1
0	4408	1414.860619199858	2
0	4412	1417.823896069566	3
0	4413	1417.913590997553	2
0	4419	1418.007433096196	3
0	4420	1419.046901840274	2
0	4426	1419.567730247772	3
0	4427	1419.791705904634	2
0	4436	1427.401380639688	3
0	4438	1428.042007433056	2
0	4443	1428.067109555224	1
0	4450	1428.679485029917	2
0	4455	1430.847576186208	3
0	4456	1431.005095161564	2
0	4461	1434.171860600012	1
0	4467	1434.514787184147	2
0	4468	1435.377358276826	1
0	4472	1436.588508481813	2
0	4477	1436.756864048766	1
0	4482	1438.792868266822	0
0	4496	1443.812323875025	1
0	4499	1446.666804739427	2
0	4504	1449.161332916685	1
0	4510	1449.187085887575	2
0	4511	1449.672264370786	1
0	4516	1449.967887781095	0
0	4524	1451.597423472277	1
0	4525	1451.655668028596	0
0	4531	1452.353604963863	1
0	4533	1454.28575148013	0
0	4547	1462.726639121385	1
0	4549	1467.634861485793	2
0	4551	1468.2346735515	3
0	4554	1469.275665462944	2
0	4559	1469.592301309766	1
0	4567	1469.861410426521	2
0	4569	1470.232755865077	1
0	4574	1470.378667879189	0
0	4586	1471.446321021131	1
0	4588	1471.878433581722	2
0	4592	1474.875016183762	1
0	4600	1480.332706530561	0
0	4606	1481.430859032191	1
0	4609	1486.617109542721	0
0	4651	1491.69566513038	1
0	4653	1492.770146491156	0
0	4664	1493.67798753075	1
0	4665	1493.854645905769	0
0	4672	1494.670867384036	1
0	4674	1495.211500387964	0
0	4684	1497.348090637536	1
0	4688	1499.712085884218	0
0	4700	1501.535459020933	1
0	4701	1502.539588770253	0
0	4715	1506.125748301449	1
0	4716	1506.913716391063	0
0	4733	1513.253060212527	1
0	4737	1515.04292583027	2
0	4738	1517.433973090455	1
0	4745	1518.778526104047	0
0	4754	1519.189018095429	1
0	4756	1520.610718872265	2
0	4758	1522.728756376263	3
0	4764	1524.952486039993	4
0	4765	1525.242580019218	3
0	4772	1526.700171258494	2
0	4787	1535.300345297295	1
0	4792	1536.683838605623	0
0	4798	1536.729882519548	1
0	4799	1539.387439136807	0
0	4848	1558.824930832854	1
0	4853	1563.34160728333	0
0	4864	1564.817955412514	1
0	4867	1565.760147942744	0
0	4889	1568.898896291345	1
0	4892	1571.910530426965	0
0	4915	1586.925874523481	1
0	4918	1591.264366135834	0
0	4924	1591.379748607116	1
0	4931	1601.323904078805	2
0	4937	1607.995854870317	3
0	4942	1609.59973260573	2
0	4947	1611.258334796266	1
0	4952	1614.041564563782	0
0	4960	1615.242937635195	1
0	4961	1615.293059982036	0
0	4980	1618.404853250706	1
0	4984	1619.398906523264	0
0	4991	1620.14360417365	1
0	4992	1620.972035959728	0
0	5006	1623.215316349846	1
0	5018	1635.790660214488	0
0	5027	1639.17897732968	1
0	5028	1639.643466575103	0
0	5034	1641.059323421673	1
0	5036	1641.509545819906	0
0	5059	1647.56620885713	1
0	5064	1652.459975066563	0
0	5075	1654.780154346606	1
0	5077	1655.201992094374	2
0	5079	1657.687270223915	1
0	5087	1659.28625421972	0
0	5103	1662.688810511647	1
0	5106	1664.689491723229	0
0	5116	1666.922886913768	1
0	5118	1667.472807940201	2
0	5123	1669.699472353013	1
0	5130	1670.674030742419	2
0	5131	1671.602656432886	1
0	5138	1672.506581671862	2
0	5140	1672.798827834801	3
0	5141	1674.882482688846	2
0	5148	1677.014639487988	1
0	5158	1680.425348403916	0
0	5189	1686.504919774761	1
0	5190	1686.549100733662	0
0	5202	1690.743497575203	1
0	5209	1692.74376179102	0
0	5218	1694.796902208577	1
0	5221	1696.488040314415	0
0	5227	1696.540490454041	1
0	5228	1697.488899178802	0
0	5236	1698.243207909211	1
0	5242	1703.13197526498	2
0	5244	1703.493755298221	3
0	5248	1705.350731136346	2
0	5254	1705.938161612216	3
0	5258	1708.411179797731	4
0	5259	1708.591850672397	3
0	5264	1709.862911600727	2
0	5269	1710.249442439526	1
0	5280	1715.078475033718	0
0	5286	1715.501430057224	1
0	5290	1716.084999743796	0
0	5309	1725.851466588178	1
0	5310	1725.859555501203	0
0	5326	1731.186301958107	1
0	5327	1731.27454667167	0
0	5340	1732.698538792927	1
0	5341	1733.316901849928	0
0	5347	1733.471253663997	1
0	5348	1733.506234823059	0
0	5355	1734.139802674408	1
0	5361	1736.295223664297	0
0	5383	1743.099836886136	1
0	5387	1745.251654385456	0
0	5394	1746.384088142606	1
0	5395	1747.782414090111	0
0	5405	1750.623751985369	1
0	5407	1751.320087412427	2
0	5408	1751.663424771805	1
0	5418	1753.961098606508	0
0	5436	1755.383158010727	1
0	5438	1755.401881244301	2
0	5441	1755.731797773467	3
0	5443	1757.730393489927	4
0	5445	1761.948837168996	5
0	5447	1762.074984265419	6
0	5448	1764.415270453506	5
0	5453	1764.500527254034	4
0	5459	1764.775451881682	5
0	5464	1769.644877362705	4
0	5470	1771.186701789527	5
0	5472	1772.057057677446	6
0	5474	1772.120359047066	7
0	5475	1773.443193278471	6
0	5481	1773.906743018768	5
0	5488	1776.579754462044	6
0	5492	1779.155181291039	5
0	5498	1781.978964174567	4
0	5504	1782.436786329265	5
0	5506	1785.830860817646	4
0	5512	1786.282763647041	5
0	5514	1787.956406344205	4
0	5520	1788.573087698813	5
0	5521	1788.816971453132	4
0	5527	1791.213558027264	3
0	5532	1791.831522842744	2
0	5537	1793.267532976569	1
0	5542	1793.599786807479	0
0	5546	1795.234078452777	1
0	5552	1796.55590308442	0
0	5596	1808.899247984482	1
0	5597	1810.678247023013	0
0	5609	1815.330782573097	1
0	5611	1816.404238548112	2
0	5612	1819.0479368194	1
0	5618	1820.373386916092	0
0	5638	1825.58192340138	1
0	5641	1827.774075254627	0
0	5661	1837.584367229918	1
0	5663	1838.166437899557	2
0	5666	1841.947905823841	1
0	5671	1842.726082627674	0
0	5689	1849.568642849641	1
0	5694	1855.338594332261	2
0	5696	1856.234829708146	3
0	5697	1857.745977560355	2
0	5702	1858.414174597069	1
0	5707	1858.490157378844	0
0	5718	1861.804249815959	1
0	5720	1862.371440809022	2
0	5722	1864.993588909035	3
0	5723	1868.651471083163	2
0	5729	1869.225266661178	3
0	5730	1869.750833872719	2
0	5736	1873.112271034326	1
0	5743	1873.828028053671	2
0	5745	1874.21203726425	1
0	5758	1886.036227742957	2
0	5760	1886.964700868078	3
0	5761	1889.283398537875	2
0	5767	1889.322513525754	3
0	5771	1892.770484418188	2
0	5778	1893.565100698384	1
0	5783	1894.033920953767	0
0	5790	1894.446033518979	1
0	5791	1895.012860981201	0
0	5814	1901.863156105138	1
0	5816	1904.182733484842	0
0	5828	1908.389686052905	1
0	5829	1909.130074096886	0
0	5853	1917.369971274817	1
0	5855	1918.2975320314	2
0	5861	1919.815099117178	3
0	5863	1919.871808813884	4
0	5866	1921.725797653488	3
0	5871	1922.899312351931	2
0	5877	1924.688002071691	1
0	5883	1925.554026850672	0
0	5903	1928.108600104684	1
0	5905	1928.515814969195	2
0	5906	1928.529463561551	1
0	5911	1928.664209075902	0
0	5921	1929.224836081552	1
0	5925	1930.672279018928	2
0	5929	1936.921657776447	1
0	5936	1938.654815302315	0
0	5943	1939.437346284279	1
0	5945	1940.399270010634	2
0	5948	1943.722702908623	1
0	5954	1944.182324329826	2
0	5956	1944.970811751289	1
0	5961	1945.097946795521	0
0	5979	1953.091151717251	1
0	5986	1956.331488751204	0
0	5999	1964.866711958228	1
0	6005	1965.915984183385	2
0	6007	1966.209550320741	1
0	6014	1969.060838087427	0
0	6021	1969.990369836996	1
0	6023	1971.294575209294	2
0	6024	1972.911650230453	1
0	6031	1975.327784672611	2
0	6032	1976.840876277312	1
0	6040	1979.180760480933	0
0	6060	1981.203869754089	1
0	6064	1983.983063742583	2
0	6068	1985.993467011962	1
0	6074	1986.053260371242	2
0	6076	1987.190328577074	1
0	6082	1989.327352043476	0
0	6099	1994.425337154707	1
0	6100	1994.697318093269	0
0	6114	1997.84895930597	1
0	6115	2002.386172568206	0
0	6141	2012.263129323414	1
0	6146	2015.38942399064	0
0	6162	2020.747918623958	1
0	6165	2021.767508658924	0
0	6172	2022.860684237673	1
0	6174	2024.391687702998	0
0	6203	2034.723548442754	1
0	6206	2036.714889556548	0
0	6225	2043.159850870403	1
0	6228	2045.050358620319	0
0	6249	2054.739218759818	1
0	6252	2057.607660814099	0
0	6264	2060.851809989895	1
0	6267	2063.98356771397	0
0	6284	2065.428158535558	1
0	6288	2068.172313381976	0
0	6294	2068.270276477516	1
0	6297	2069.909590496195	2
0	6298	2070.415821331089	1
0	6303	2070.96443690759	0
0	6327	2077.650244205921	1
0	6328	2077.702440653014	0
0	6354	2085.010254246249	1
0	6355	2088.469487135461	0
0	6365	2096.127810426703	1
0	6368	2097.046703496861	0
0	6377	2097.967214232142	1
0	6382	2099.217021596857	2
0	6384	2099.806739073234	1
0	6391	2103.705847914266	2
0	6396	2107.365814494136	3
0	6398	2109.781059162202	4
0	6400	2109.948826777446	5
0	6402	2110.453915068849	6
0	6403	2114.872889201372	5
0	6409	2115.200333524157	6
0	6413	2116.733664775174	5
0	6418	2116.981171685183	4
0	6424	2117.376188340322	5
0	6430	2120.797892881416	6
0	6431	2123.635754139094	5
0	6437	2127.054570645938	6
0	6438	2127.500518641446	5
0	6445	2130.360219773081	6
0	6449	2133.438070194799	5
0	6454	2134.773252736492	4
0	6462	2137.042437679956	3
0	6469	2138.360675480853	2
0	6474	2138.78139409814	1
0	6480	2139.234533235045	0
0	6495	2142.050606658328	1
0	6496	2143.131111736224	0
0	6540	2156.462933514723	1
0	6543	2160.999826431441	0
0	6554	2163.575311018036	1
0	6557	2164.258357529987	2
0	6560	2165.520426740014	1
0	6567	2166.230087183843	2
0	6569	2166.602686753665	3
0	6571	2170.194932130558	4
0	6572	2170.270622589776	3
0	6579	2172.400200734853	2
0	6586	2173.674938281497	1
0	6594	2176.331814676721	2
0	6596	2177.762686151885	3
0	6605	2181.974843601324	4
0	6609	2186.425329925368	5
0	6613	2187.296442101003	6
0	6615	2189.76196773834	7
0	6616	2190.276144671688	6
0	6621	2190.417890157386	5
0	6627	2191.94430043321	6
0	6632	2197.013524208983	5
0	6639	2198.457127503715	4
0	6645	2199.045084808114	3
0	6651	2200.212784690791	2
0	6659	2202.47783498153	3
0	6665	2203.845507415311	4
0	6666	2204.65054766557	3
0	6671	2204.885160047018	2
0	6676	2206.022941859526	1
0	6681	2206.391659529397	0
0	6687	2206.715337502793	1
0	6688	2207.323607343423	0
0	6709	2214.408377547172	1
0	6715	2218.489874789851	0
0	6758	2228.489034605937	1
0	6760	2228.955229534065	2
0	6761	2229.619093896919	1
0	6766	2229.832929822456	0
0	6776	2232.228384801538	1
0	6779	2232.995066973266	2
0	6782	2233.989440562395	3
0	6785	2234.923505080786	2
0	6791	2236.104687289253	1
0	6797	2240.620561062833	0
0	6806	2241.642714627448	1
0	6807	2242.206446304619	0
0	6831	2251.505564446492	1
0	6832	2251.719344477666	0
0	6846	2257.296522073135	1
0	6847	2257.905830592795	0
0	6858	2260.822428466	1
0	6859	2260.955280273158	0
0	6869	2262.209625950289	1
0	6873	2264.162915238816	2
0	6874	2264.795732335505	1
0	6881	2265.86972636867	2
0	6883	2266.204124512377	3
0	6884	2266.306470803941	2
0	6891	2266.429216392935	3
0	6892	2266.975876801805	2
0	6900	2268.042556587159	3
0	6901	2268.299022556069	2
0	6906	2268.763946169975	1
0	6912	2269.937972785284	2
0	6914	2270.608912787873	1
0	6922	2272.942753353939	2
0	6924	2273.550497872035	3
0	6926	2275.894464497139	4
0	6928	2276.892134719239	3
0	6934	2278.43458856412	2
0	6942	2281.510451164137	1
0	6948	2285.257350550544	0
0	6974	2293.02493322694	1
0	6975	2297.120797921902	0
0	6981	2297.491734670813	1
0	6982	2297.730884128547	0
0	6989	2298.6041201252	1
0	6992	2299.019762162569	0
0	6998	2299.134503024867	1
0	7001	2302.513489888699	2
0	7003	2302.7897879269	3
0	7004	2302.897341200482	2
0	7010	2303.069035162269	1
0	7020	2307.15107473753	0
0	7042	2310.732290346383	1
0	7044	2311.876833664295	2
0	7047	2313.761503605208	1
0	7054	2320.151287388035	0
0	7061	2321.374901769514	1
0	7063	2321.401046851496	2
0	7067	2322.877386858266	3
0	7068	2323.517979803602	2
0	7073	2324.061480187363	1
0	7079	2324.218624846724	2
0	7081	2324.893600698377	3
0	7083	2325.094905480844	2
0	7092	2327.364356076784	1
0	7097	2327.643413683273	0
0	7104	2329.280369428959	1
0	7105	2330.021632804488	0
0	7144	2338.875638529599	1
0	7146	2339.585434679866	2
0	7151	2343.846670429024	1
0	7156	2344.396392513708	0
0	7172	2348.586452074723	1
0	7174	2348.963122237392	2
0	7176	2349.388679533424	3
0	7178	2349.494762380937	4
0	7181	2352.553447560857	3
0	7188	2354.510952480319	4
0	7189	2355.841402959842	3
0	7194	2358.013232528516	2
0	7203	2361.939077433538	3
0	7204	2362.871941817084	2
0	7210	2363.405104770039	1
0	7217	2367.215845871717	2
0	7218	2369.764850642863	1
0	7223	2369.883717672591	0
0	7234	2371.20423997414	1
0	7236	2371.27261529473	2
0	7238	2372.877982168295	1
0	7245	2377.533431988666	0
0	7255	2380.859334834102	1
0	7261	2387.383749152222	2
0	7263	2388.272170648452	3
0	7265	2390.708882889522	4
0	7268	2391.548377261299	3
0	7275	2392.59285549133	4
0	7277	2392.854689318562	5
0	7281	2396.348904752368	6
0	7282	2399.720227435924	5
0	7290	2400.281093489993	6
0	7295	2401.013573464663	7
0	7298	2403.874291685392	6
0	7304	2405.138661358007	5
0	7309	2406.144148848834	4
0	7320	2412.903534306938	3
0	7326	2414.299960184925	4
0	7328	2416.322567277404	5
0	7331	2417.133628380114	4
0	7336	2417.592572605445	3
0	7341	2418.337918909251	2
0	7346	2418.729059596168	1
0	7351	2420.158607863636	0
0	7406	2428.816022779253	1
0	7407	2431.184863634155	0
0	7420	2436.344914685171	1
0	7422	2439.212239936435	2
0	7424	2439.323183147729	3
0	7425	2439.329271055539	2
0	7430	2439.76942559967	1
0	7435	2440.52806547965	0
0	7452	2442.063958782018	1
0	7454	2443.68208605784	0
0	7473	2446.75543880814	1
0	7476	2448.269783719356	0
0	7483	2449.41798941537	1
0	7485	2449.87816432709	2
0	7486	2450.031062670898	1
0	7493	2450.438532873908	0
0	7501	2452.416644019289	1
0	7509	2456.734590485619	2
0	7511	2464.987404092424	3
0	7512	2465.199413577301	2
0	7520	2472.373524668789	1
0	7526	2473.725603193468	0
0	7537	2474.080801674169	1
0	7540	2475.218885548453	0
0	7547	2475.801410621711	1
0	7549	2478.210127139605	2
0	7550	2478.340470610531	1
0	7555	2478.620192712819	0
0	7578	2484.549419411362	1
0	7582	2491.693250954444	2
0	7583	2492.388993152956	1
0	7588	2493.284473537738	0
0	7611	2500.071392109466	1
0	7612	2501.267866179124	0
0	7631	2506.996316726703	1
0	7632	2508.019823379799	0
0	7639	2509.06658150892	1
0	7641	2510.265312561991	0
0	7648	2511.159816103096	1
0	7650	2512.72567590113	0
0	7658	2515.063628065569	1
0	7660	2516.501416539491	0
0	7666	2517.888213836809	1
0	7669	2519.097033602788	0
0	7675	2519.281970454946	1
0	7677	2519.316087549197	2
0	7680	2519.553151990398	3
0	7681	2520.031619939517	2
0	7686	2520.897268309994	1
0	7694	2522.123042786362	0
0	7721	2526.079639426352	1
0	7722	2526.68679015559	0
0	7733	2527.885209522438	1
0	7734	2528.622334109213	0
0	7740	2529.110202613441	1
0	7748	2540.733488143789	0
0	7757	2544.903616533849	1
0	7758	2544.937722341771	0
0	7766	2547.21854929735	1
0	7767	2547.307517216801	0
0	7773	2549.312717721924	1
0	7776	2549.536108196173	2
0	7782	2551.028508173764	1
0	7788	2551.895688254844	0
0	7817	2565.805504877993	1
0	7820	2567.587176417308	0
0	7833	2571.183076386928	1
0	7836	2573.433666594328	2
0	7837	2573.868311197772	1
0	7842	2574.180750360747	0
0	7849	2574.507238961174	1
0	7853	2579.59229017085	0
0	7862	2581.268355722924	1
0	7863	2581.353896950515	0
0	7901	2591.256404610857	1
0	7903	2591.274256283218	2
0	7904	2593.694119850951	1
0	7912	2598.126158548313	0
0	7922	2600.607028881835	1
0	7926	2602.773876387032	0
0	7937	2606.242335873641	1
0	7939	2606.308639632238	2
0	7941	2607.212082691664	1
0	7947	2607.651019233416	0
0	7972	2610.832217519687	1
0	7975	2611.681096038372	0
0	7981	2612.110607336909	1
0	7985	2613.696254165469	0
0	7991	2613.822165893409	1
0	7993	2614.737097045403	0
0	8008	2616.672935616112	1
0	8009	2617.7152518317	0
0	8024	2621.881383674191	1
0	8025	2622.027959537534	0
0	8035	2624.0958269992	1
0	8039	2628.042772032719	2
0	8042	2632.220012484943	1
0	8047	2632.747755134126	0
0	8055	2633.893979681913	1
0	8057	2638.287982540252	0
0	8063	2639.409747462409	1
0	8065	2641.108424201912	0
0	8093	2649.035521840842	1
0	8097	2649.677776167452	2
0	8098	2651.336634803947	1
0	8103	2651.341611193555	0
0	8114	2653.786031126084	1
0	8118	2655.266274987562	2
0	8120	2657.665311980058	3
0	8124	2664.673608480366	4
0	8125	2664.740849294452	3
0	8132	2666.778400575744	4
0	8135	2668.098446216181	5
0	8138	2669.773052118299	4
0	8144	2669.88700024261	5
0	8145	2670.065776478642	4
0	8151	2672.941766742783	5
0	8155	2674.840227416612	6
0	8156	2676.546715105598	5
0	8162	2677.098240690927	6
0	8164	2679.199047236445	5
0	8169	2679.451183397429	4
0	8176	2683.412818696973	3
0	8181	2683.795484681982	2
0	8188	2684.590058448892	3
0	8190	2684.918204131006	4
0	8192	2687.704665845896	3
0	8197	2690.198907128822	2
0	8202	2690.633319790271	1
0	8206	2690.807025634358	2
0	8211	2695.293424826303	1
0	8215	2696.859561121073	2
0	8217	2698.855309840463	3
0	8219	2701.333894068827	4
0	8226	2703.439354933028	5
0	8228	2704.396944501308	4
0	8235	2707.823066534922	5
0	8236	2709.069908365532	4
0	8242	2709.555808178078	3
0	8251	2715.251967350026	4
0	8253	2716.612228699161	5
0	8255	2718.3410021107	6
0	8259	2721.515548666336	7
0	8262	2722.798392051947	6
0	8268	2723.445375064819	7
0	8270	2727.582342765171	6
0	8276	2727.787716628071	7
0	8279	2728.850534995884	8
0	8281	2729.747250857809	9
0	8282	2732.026541390564	8
0	8288	2732.465163263665	9
0	8291	2733.131573913431	10
0	8292	2734.655050498163	9
0	8297	2735.285912164454	8
0	8305	2738.533230396145	9
0	8306	2741.127891222901	8
0	8312	2743.445287453041	7
0	8317	2743.450254676337	6
0	8322	2744.152774551591	5
0	8330	2746.457742653387	4
0	8342	2748.81616405003	5
0	8344	2749.536964803283	6
0	8346	2750.602351036844	7
0	8349	2750.831571273936	6
0	8355	2752.190240893645	7
0	8357	2752.492856890781	8
0	8359	2753.035713708902	9
0	8365	2754.345982745949	8
0	8370	2754.931118517269	7
0	8375	2755.994477398025	6
0	8380	2759.191285163534	5
0	8385	2759.791668623104	4
0	8391	2760.915805713339	5
0	8393	2763.939895958162	6
0	8395	2765.207953532335	7
0	8396	2766.335401935358	6
0	8401	2768.185759207581	5
0	8407	2768.930896843283	6
0	8409	2769.636678185932	7
0	8410	2770.170649327973	6
0	8416	2772.377359796998	7
0	8423	2775.31818528591	8
0	8424	2778.099371030353	7
0	8429	2778.267606654911	6
0	8435	2781.031448926469	7
0	8438	2781.599550472194	8
0	8443	2783.137889927315	9
0	8445	2785.327691847936	8
0	8451	2785.505930498133	9
0	8452	2786.007730388274	8
0	8457	2786.472100672935	7
0	8463	2787.844857729717	8
0	8467	2793.80227649991	7
0	8476	2796.130047667699	8
0	8478	2799.180329157609	9
0	8481	2801.424759096045	8
0	8487	2804.278287671915	9
0	8488	2804.790683894948	8
0	8492	2806.50706940569	9
0	8497	2808.614243390689	10
0	8498	2809.427709638377	9
0	8504	2810.170737743539	8
0	8511	2813.17820208655	7
0	8516	2814.088454330042	6
0	8525	2815.738897040945	5
0	8531	2817.687117933426	4
0	8541	2822.123698420265	3
0	8547	2823.186018950465	2
0	8554	2825.421887186944	1
0	8560	2830.725965814033	0
0	8566	2832.245104356265	1
0	8567	2832.477410069766	0
0	8594	2840.315983832272	1
0	8595	2842.31747150046	0
0	8601	2843.478047800241	1
0	8602	2845.49436360072	0
0	8621	2848.317588916169	1
0	8622	2851.233030168157	0
0	8637	2854.979405727495	1
0	8638	2855.664353994788	0
0	8646	2856.776372243115	1
0	8652	2864.504174823591	0
0	8672	2868.889011205094	1
0	8678	2869.161334251076	2
0	8679	2869.642798156687	1
0	8685	2871.321999421716	2
0	8688	2871.86856304664	3
0	8689	2873.37557436444	2
0	8697	2874.003624673194	3
0	8699	2874.119210039473	4
0	8702	2874.500710349253	5
0	8704	2877.892403406192	4
0	8709	2879.388767135622	3
0	8716	2880.752684104558	2
0	8722	2881.954439863373	1
0	8728	2882.20682037168	2
0	8729	2882.376819846619	1
0	8734	2882.496960381462	0
0	8749	2885.988509581747	1
0	8751	2886.22185172482	2
0	8753	2886.306890807827	3
0	8755	2889.637343114654	4
0	8761	2891.630170804816	3
0	8766	2892.103838624915	2
0	8775	2894.870378843014	1
0	8785	2898.575198046006	0
0	8791	2899.432424655524	1
0	8792	2899.513369869523	0
0	8798	2899.624830802043	1
0	8801	2900.630825530177	0
0	8813	2902.677774958745	1
0	8816	2903.089715354615	2
0	8818	2903.825352247328	1
0	8823	2905.421818303957	0
0	8829	2905.444154406139	1
0	8830	2906.985095635584	0
0	8847	2910.278292809866	1
0	8848	2911.194441855339	0
0	8860	2913.414165702468	1
0	8862	2913.562099232427	2
0	8863	2913.928626851277	1
0	8868	2914.532206137526	0
0	8886	2919.153732005128	1
0	8889	2919.654542596573	2
0	8890	2920.337475184372	1
0	8897	2921.007147882226	2
0	8902	2924.783041682636	1
0	8908	2927.63388288468	0
0	8919	2930.462076216055	1
0	8921	2931.272235335635	2
0	8923	2931.374746587569	3
0	8927	2934.015489466352	2
0	8932	2934.535032569104	1
0	8938	2935.175765642926	0
0	8948	2939.594286755266	1
0	8951	2941.956968917597	0
0	8957	2942.021266349649	1
0	8962	2943.233774415805	2
0	8964	2944.734384388913	1
0	8969	2945.966426671248	0
0	8978	2948.19268902723	1
0	8983	2950.452033572757	2
0	8984	2952.387545851758	1
0	8991	2954.276156431825	2
0	8992	2956.680119984278	1
0	8997	2957.304397812157	0
0	9003	2958.402831455467	1
0	9006	2961.270194517922	0
0	9023	2963.643418657519	1
0	9024	2963.898232696998	0
0	9035	2965.586810317259	1
0	9038	2966.155851456007	2
0	9040	2966.535903956087	3
0	9046	2971.982000282508	4
0	9047	2976.542366197768	3
0	9053	2977.792895589756	2
0	9058	2979.829787629695	1
0	9065	2981.116828070466	0
0	9072	2981.748429324421	1
0	9073	2981.914644544179	0
0	9079	2982.992644056773	1
0	9084	2985.923613270888	0
0	9090	2986.961129690708	1
0	9092	2987.587440287902	2
0	9093	2988.215481767407	1
0	9098	2988.446038666145	0
0	9116	2991.330512753924	1
0	9118	2992.001864115257	0
0	9125	2995.688469028741	1
0	9129	2996.406195064594	2
0	9130	2997.215702220228	1
0	9138	3002.216512623341	0
0	9158	3008.146125963393	1
0	9159	3008.42116311398	0
0	9176	3010.997766572606	1
0	9178	3011.221440607683	0
0	9189	3012.718156471127	1
0	9194	3013.633644980969	2
0	9195	3015.069868327811	1
0	9204	3016.516758339091	0
0	9213	3018.272823102512	1
0	9215	3019.002156333814	2
0	9217	3020.075972175337	1
0	9223	3021.225870317946	2
0	9226	3022.095101336658	3
0	9230	3022.909053882554	4
0	9233	3025.025529868693	3
0	9239	3025.25867380038	4
0	9240	3025.774101526648	3
0	9251	3032.43462539691	2
0	9256	3033.556579869055	1
0	9261	3034.011119199224	0
0	9267	3034.557776872989	1
0	9269	3036.682249699316	2
0	9274	3038.617488181595	1
0	9282	3039.576903177701	2
0	9284	3041.612858750057	3
0	9287	3044.404621786377	4
0	9288	3046.261111550466	3
0	9293	3048.87694338643	2
0	9299	3052.261924488124	3
0	9301	3052.652163882977	4
0	9304	3054.560426938673	3
0	9308	3056.347196715721	4
0	9311	3057.926203048853	3
0	9316	3059.01810392487	2
0	9323	3062.551285571661	1
0	9329	3063.479393752568	2
0	9331	3066.754658565466	3
0	9332	3068.607700731318	2
0	9340	3071.018204766955	3
0	9342	3071.987034622361	4
0	9344	3075.6242984864	5
0	9348	3077.31231604944	4
0	9354	3077.873938876733	5
0	9356	3080.255063802032	4
0	9370	3083.551452971782	5
0	9372	3083.565314844386	6
0	9374	3084.369894992328	7
0	9375	3085.140384092234	6
0	9381	3088.045693415874	7
0	9382	3088.364633465704	6
0	9388	3090.309903007567	5
0	9393	3090.45407859013	4
0	9399	3090.941616153501	5
0	9400	3092.5955778046	4
0	9407	3098.844575986175	3
0	9414	3099.742778289506	2
0	9420	3100.247811657253	3
0	9426	3102.838249945605	4
0	9427	3102.862425437234	3
0	9433	3102.883475896889	4
0	9434	3102.924017346377	3
0	9440	3103.335065155756	4
0	9444	3106.044067173045	5
0	9445	3107.467326315737	4
0	9452	3109.245425376507	3
0	9462	3113.769671585	2
0	9470	3116.135574901153	3
0	9472	3117.253807749685	4
0	9473	3121.56321353202	3
0	9480	3122.739964835931	2
0	9487	3124.146506988474	3
0	9490	3124.821869086491	4
0	9491	3125.817840399211	3
0	9496	3126.061283993878	2
0	9501	3127.739382431874	1
0	9510	3131.447792130554	0
0	9528	3134.687600906996	1
0	9529	3134.900817031516	0
0	9558	3144.822824626003	1
0	9561	3148.074206360896	0
0	9571	3149.981906348926	1
0	9573	3150.2320313869	2
0	9575	3151.122572846238	3
0	9577	3151.20814742452	4
0	9583	3153.360707331103	5
0	9585	3154.930851689561	6
0	9586	3155.536520437589	5
0	9593	3158.404067067369	4
0	9599	3159.148514555725	3
0	9604	3160.750035017276	2
0	9609	3160.888066164625	1
0	9614	3161.167679175466	0
0	9618	3162.616663527376	1
0	9621	3164.784867834021	0
0	9628	3166.407574465703	1
0	9633	3168.634382778731	2
0	9634	3168.692210536523	1
0	9641	3169.571038981289	2
0	9642	3170.395129007296	1
0	9651	3171.234043632649	0
0	9684	3178.381453106341	1
0	9687	3180.697670845175	0
0	9694	3182.853833842646	1
0	9695	3183.279167936515	0
0	9704	3183.75323777329	1
0	9706	3183.852737067589	2
0	9710	3185.546126992452	1
0	9717	3187.286076496617	2
0	9718	3188.259010619891	1
0	9724	3189.539736749928	0
0	9738	3197.919320841364	1
0	9739	3200.983958580562	0
0	9748	3205.696562675347	1
0	9749	3206.898269955479	0
0	9758	3212.169935458516	1
0	9759	3214.83532468254	0
0	9802	3223.89044533184	1
0	9804	3224.496676569122	2
0	9805	3224.545217043661	1
0	9811	3225.711366147584	0
0	9821	3226.353379703727	1
0	9826	3230.134676875497	0
0	9841	3235.058948335915	1
0	9846	3238.966730276502	0
0	9871	3244.038131034981	1
0	9873	3244.066335765325	2
0	9875	3245.68516268261	3
0	9880	3250.536826498806	2
0	9885	3251.076907029346	1
0	9893	3252.27675804061	2
0	9896	3254.021968200537	1
0	9906	3256.982074132766	0
0	9920	3257.661768937163	1
0	9923	3259.112965014889	0
0	9944	3263.226610832931	1
0	9947	3265.65996724167	0
0	9972	3269.698723941412	1
0	9974	3271.049948511976	2
0	9975	3271.833855201046	1
0	9980	3272.560448375682	0
0	9988	3273.01914097593	1
0	9990	3273.457537106902	2
0	9993	3274.23554720718	3
0	9995	3275.622161301955	2
0	10000	3276.50392206612	1
0	10006	3277.873046004637	0
0	10023	3284.485125569888	1
0	10027	3285.275460744719	2
0	10033	3287.123619729057	3
0	10034	3287.424062241202	2
0	10043	3289.874748617474	1
0	10050	3290.398459534481	2
0	10052	3291.843463713954	1
0	10058	3292.540364077745	2
0	10061	3293.695078157043	3
0	10063	3293.754849223715	4
0	10064	3296.279956195805	3
0	10069	3297.541447811003	2
0	10075	3297.603808370442	3
0	10080	3299.29672621812	4
0	10081	3302.142417727219	3
0	10088	3303.509059140065	4
0	10089	3303.891464822772	3
0	10094	3304.757753487974	2
0	10099	3304.837837709584	1
0	10107	3307.640415230336	2
0	10112	3309.872206272647	3
0	10118	3314.24974050756	2
0	10132	3318.731843796895	3
0	10133	3321.678325695857	2
0	10140	3321.949745894292	3
0	10142	3322.29289306269	2
0	10147	3322.411172998093	1
0	10152	3322.644650211067	0
0	10198	3339.165728716534	1
0	10200	3339.833703625901	2
0	10203	3341.05936062419	1
0	10209	3341.518385693698	2
0	10211	3343.26623845211	1
0	10216	3343.953323280019	0
0	10237	3349.769657252341	1
0	10243	3357.190177303454	0
0	10267	3366.724958780805	1
0	10269	3367.98226536929	2
0	10270	3368.359691358382	1
0	10277	3374.300042342026	2
0	10279	3375.082179233888	3
0	10281	3377.311905941636	4
0	10284	3379.232664772669	3
0	10291	3380.402577181981	4
0	10292	3381.600878796055	3
0	10300	3383.586472005289	2
0	10306	3384.389784328609	1
0	10311	3384.691840352504	0
0	10318	3385.422841299058	1
0	10319	3385.932846925663	0
0	10335	3392.792305553313	1
0	10340	3393.456071609965	0
0	10348	3393.881141262409	1
0	10351	3396.042997811858	2
0	10353	3396.432832812068	1
0	10361	3398.731987597717	0
0	10367	3399.011571160372	1
0	10368	3399.760944786164	0
0	10374	3400.253798846701	1
0	10378	3403.923523045067	0
0	10399	3404.825438472959	1
0	10401	3405.088750522131	2
0	10402	3405.82493384961	1
0	10408	3406.305926335769	2
0	10411	3407.773092274545	1
0	10420	3409.384585031613	0
0	10441	3411.419442200126	1
0	10442	3411.69411483678	0
0	10451	3412.764661058034	1
0	10455	3414.477199449755	2
0	10457	3416.149646966735	3
0	10465	3421.365399875097	4
0	10466	3423.921122210592	3
0	10471	3424.779207569062	2
0	10478	3428.82353994746	1
0	10484	3429.356988395738	2
0	10487	3431.051550179583	1
0	10498	3433.351349198659	2
0	10499	3434.379737088072	1
0	10508	3439.881341972993	0
0	10515	3441.429106820029	1
0	10516	3441.43557349598	0
0	10523	3443.155002295402	1
0	10525	3443.352008290674	2
0	10526	3447.167506287328	1
0	10531	3447.941029086944	0
0	10538	3448.852280912689	1
0	10540	3449.355165804542	0
0	10546	3449.499219585207	1
0	10550	3452.876187167301	0
0	10560	3458.338560957364	1
0	10561	3463.238032635791	0
0	10573	3466.342803359388	1
0	10574	3466.75726931045	0
0	10581	3467.411448392136	1
0	10585	3468.748464205184	0
0	10596	3471.048291187461	1
0	10601	3474.920280578473	2
0	10602	3475.344659793898	1
0	10607	3475.90304002796	0
0	10633	3480.763790570024	1
0	10635	3482.090243822119	2
0	10636	3482.412525065352	1
0	10641	3482.435717632403	0
0	10648	3483.019880599657	1
0	10651	3486.508820495492	0
0	10657	3487.088038687043	1
0	10659	3489.2914480029	0
0	10689	3495.036983064088	1
0	10695	3499.929383628491	0
0	10709	3502.687313029687	1
0	10710	3503.878659148945	0
0	10725	3510.387014955124	1
0	10726	3511.25476472896	0
0	10732	3511.40985347995	1
0	10736	3514.242403111346	0
0	10750	3516.623065245859	1
0	10751	3517.650859027093	0
0	10763	3521.337328374811	1
0	10764	3521.368964597548	0
0	10774	3522.513215179882	1
0	10778	3523.611788906349	2
0	10781	3525.820016698078	1
0	10788	3526.700392505822	0
0	10848	3548.236978589793	1
0	10850	3548.661973994858	2
0	10852	3550.111445758625	3
0	10853	3552.879008714034	2
0	10859	3555.288206757385	1
0	10866	3556.080822320497	0
0	10881	3559.807821940943	1
0	10886	3562.822427566111	2
0	10890	3563.963066421002	3
0	10892	3564.291366102522	4
0	10893	3564.875101520109	3
0	10899	3567.044029905692	2
0	10904	3567.209832579144	1
0	10909	3567.647387149118	0
0	10915	3568.025848771397	1
0	10916	3568.27788842276	0
0	10928	3570.897023726628	1
0	10930	3571.486082010745	2
0	10937	3574.225341282496	3
0	10939	3574.489571542267	4
0	10942	3577.491941752628	3
0	10952	3579.710364127414	4
0	10953	3581.346720388368	3
0	10961	3582.735849967968	2
0	10967	3585.081668450193	1
0	10975	3587.873927828121	0
0	10987	3590.283960863977	1
0	10993	3595.184961781501	2
0	10996	3597.424739680053	1
0	11003	3599.14812739293	0
0	11038	3602.313335345416	1
0	11040	3603.663488124179	2
0	11044	3605.100485107447	3
0	11050	3607.22895265906	4
0	11052	3610.124135412747	5
0	11054	3610.654743661373	6
0	11056	3610.939686951656	7
0	11060	3611.714015144963	8
0	11061	3613.700901877663	7
0	11066	3613.799412830579	6
0	11071	3614.320584500619	5
0	11077	3615.033598184971	4
0	11086	3615.694140684583	5
0	11091	3620.605911158123	6
0	11096	3623.546651606172	7
0	11104	3625.828429429436	6
0	11110	3626.069268648762	7
0	11111	3626.810917703674	6
0	11116	3627.357357651091	5
0	11121	3627.989269191876	4
0	11130	3628.227205978551	5
0	11132	3629.046057548209	6
0	11133	3629.253760511632	5
0	11139	3629.352382443442	6
0	11142	3630.027877522083	7
0	11144	3630.727327543989	8
0	11148	3632.89585251344	7
0	11155	3635.542668271497	6
0	11160	3636.115183603627	5
0	11167	3637.443026276224	4
0	11176	3637.994188176097	5
0	11179	3640.480457009529	6
0	11181	3640.547180957886	7
0	11182	3645.395295204246	6
0	11189	3647.485982959637	7
0	11190	3648.022905349699	6
0	11195	3649.374658799512	5
0	11202	3650.39502121376	6
0	11203	3651.481055841887	5
0	11212	3652.660241435639	6
0	11214	3654.314868612176	5
0	11219	3654.638229353305	4
0	11228	3658.59381891607	3
0	11237	3662.025004640576	4
0	11238	3663.892579530789	3
0	11244	3664.204112543842	4
0	11246	3665.315605061233	5
0	11247	3666.410997531309	4
0	11252	3667.361631155547	3
0	11257	3668.092179680875	2
0	11262	3668.2727258767	1
0	11269	3674.457918494902	0
0	11276	3675.251984402752	1
0	11279	3682.170890238535	0
0	11288	3684.577920476937	1
0	11289	3684.676281037395	0
0	11307	3691.945409975776	1
0	11309	3691.977589557632	2
0	11310	3695.327433773934	1
0	11316	3696.172810689177	0
0	11340	3704.902240093841	1
0	11342	3705.242987913475	2
0	11343	3705.503682009226	1
0	11349	3706.229990584158	2
0	11350	3708.065208149779	1
0	11356	3709.134981461983	2
0	11362	3710.797637912219	1
0	11367	3712.933555652419	0
0	11379	3716.176409086631	1
0	11380	3716.418006694115	0
0	11388	3717.252842744127	1
0	11392	3720.085834461964	2
0	11395	3721.116117575352	1
0	11402	3722.218841903291	2
0	11403	3722.759658394452	1
0	11408	3723.275884714087	0
0	11452	3733.952401242017	1
0	11454	3734.188762551251	2
0	11457	3735.286784108934	1
0	11462	3735.602152946159	0
0	11485	3742.98665281832	1
0	11489	3745.616459940985	2
0	11490	3747.573965778774	1
0	11496	3748.001089877959	2
0	11497	3748.331640453184	1
0	11502	3749.938873753538	0
0	11516	3756.519174738839	1
0	11520	3758.566804568458	2
0	11524	3760.192027399955	3
0	11528	3763.226521602915	2
0	11535	3765.627620168675	3
0	11540	3767.089329855256	4
0	11542	3767.854722832047	5
0	11543	3768.200951669469	4
0	11549	3768.746238278571	5
0	11550	3769.248670602217	4
0	11561	3773.064154562658	3
0	11567	3773.500972830108	2
0	11573	3773.997250313208	3
0	11575	3775.863186276011	4
0	11578	3778.040009376986	3
0	11583	3778.543410608312	2
0	11589	3778.682655146389	3
0	11593	3779.32753588827	2
0	11599	3780.406550844874	1
0	11606	3780.864165153874	0
0	11612	3782.077019091199	1
0	11614	3783.398790066993	0
0	11622	3788.337080597963	1
0	11624	3788.679020777493	2
0	11625	3789.140324757206	1
0	11635	3794.033566246384	2
0	11636	3794.515026160105	1
0	11642	3794.808588556014	2
0	11643	3795.354818257377	1
0	11650	3798.500579050739	0
0	11658	3800.881988270236	1
0	11659	3801.938381172559	0
0	11673	3805.446304451134	1
0	11674	3806.167132360402	0
0	11682	3808.70443772976	1
0	11683	3809.400936924718	0
0	11700	3815.97415398266	1
0	11702	3816.786998544068	2
0	11710	3821.175811453479	3
0	11711	3822.955798676994	2
0	11717	3823.579582781056	1
0	11723	3823.89966465247	0
0	11740	3827.19808419454	1
0	11744	3832.842857683678	0
0	11750	3833.134811340444	1
0	11754	3837.255487448346	0
0	11778	3845.020527002885	1
0	11782	3846.58353843855	2
0	11785	3848.042216602317	1
0	11791	3849.287058724508	0
0	11801	3853.811238881883	1
0	11804	3858.42925151516	0
0	11818	3861.294754605414	1
0	11820	3862.092190644802	2
0	11821	3863.072031105389	1
0	11826	3863.59958418002	0
0	11842	3865.677346568909	1
0	11844	3866.329306676398	2
0	11848	3869.769491558741	3
0	11849	3870.504300521853	2
0	11854	3870.529010563265	1
0	11859	3871.118270328045	0
0	11871	3878.074175515162	1
0	11872	3878.880694663214	0
0	11878	3879.038862431619	1
0	11879	3879.949431672671	0
0	11892	3882.400674489843	1
0	11894	3883.942349251351	2
0	11895	3884.292687849151	1
0	11900	3884.603301303509	0
0	11936	3894.446325385376	1
0	11941	3895.240221353309	2
0	11942	3895.25995885401	1
0	11947	3895.449258948239	0
0	11954	3896.17221036267	1
0	11961	3898.560838208052	2
0	11966	3901.283436215659	1
0	11973	3903.023121253853	2
0	11974	3903.261418589199	1
0	11981	3905.337100736887	2
0	11983	3905.399238808466	3
0	11985	3906.783538291708	4
0	11986	3907.855155184306	3
0	11991	3910.299151965267	2
0	11998	3911.264450985643	1
0	12009	3914.198500305485	2
0	12011	3914.516706810061	3
0	12012	3915.371720849031	2
0	12018	3916.673244253037	3
0	12020	3917.979754580269	2
0	12026	3918.235680970033	3
0	12028	3920.574882498865	2
0	12033	3920.687805908916	1
0	12039	3922.710011184331	0
0	12056	3926.637288913646	1
0	12058	3933.495484801579	0
0	12067	3936.032755138227	1
0	12071	3938.805666304546	0
0	12080	3940.235172974553	1
0	12086	3942.005326468578	2
0	12087	3942.473198004146	1
0	12093	3944.245453343109	0
0	12105	3945.069967457079	1
0	12111	3947.53763889012	2
0	12113	3951.594874047424	3
0	12114	3954.459715249169	2
0	12121	3956.514633666721	1
0	12126	3956.98012337449	0
0	12132	3958.183348947416	1
0	12133	3959.508973559751	0
0	12164	3967.506550641446	1
0	12170	3971.082131735554	2
0	12171	3972.246366014549	1
0	12177	3972.902025782585	2
0	12183	3975.503937865698	1
0	12191	3976.110230244481	2
0	12193	3985.11089717095	1
0	12200	3986.402497609289	2
0	12205	3990.96671316328	1
0	12211	3992.63600167099	0
0	12228	3996.516864282511	1
0	12229	3999.041012905554	0
0	12251	4004.254113145209	1
0	12257	4006.145507915633	2
0	12259	4006.501167366251	3
0	12260	4006.560329494862	2
0	12271	4011.194010091149	1
0	12277	4013.894797880408	0
0	12286	4019.764112885163	1
0	12288	4020.053885458742	2
0	12291	4022.640816076592	1
0	12296	4023.12018310147	0
0	12309	4025.251612214369	1
0	12312	4028.766236781502	0
0	12318	4028.784475882707	1
0	12319	4029.310182942104	0
0	12328	4029.611336691184	1
0	12331	4031.363552797725	0
0	12339	4032.546083930582	1
0	12341	4033.333853114564	2
0	12343	4035.274831923263	1
0	12349	4036.515051282878	0
0	12371	4041.418672108138	1
0	12377	4043.669650012625	0
0	12388	4047.564169934579	1
0	12395	4049.652931402358	0
0	12402	4054.261472305444	1
0	12404	4054.58275868434	2
0	12405	4056.323804604088	1
0	12413	4058.652121003035	0
0	12449	4071.080610459694	1
0	12457	4077.952341303431	0
0	12479	4086.671031448846	1
0	12480	4088.294225149781	0
0	12487	4090.248214713779	1
0	12492	4092.135612586507	0
0	12509	4097.042849579583	1
0	12512	4098.269552337377	0
0	12522	4102.759293764217	1
0	12523	4103.44083923456	0
0	12534	4105.096371928611	1
0	12536	4106.758382187929	0
0	12548	4107.90975830815	1
0	12549	4108.72622911589	0
0	12563	4110.164400513237	1
0	12569	4111.458893938284	0
0	12578	4111.999693202849	1
0	12580	4114.338896824805	2
0	12583	4115.039435767947	1
0	12590	4118.731896271687	2
0	12591	4118.81144291449	1
0	12596	4118.845597400661	0
0	12606	4119.546677487031	1
0	12608	4119.788209676155	2
0	12610	4121.778734005059	3
0	12618	4125.167062910768	4
0	12619	4125.364496401493	3
0	12626	4128.001313468795	4
0	12627	4128.387475965041	3
0	12632	4129.364023495442	2
0	12641	4131.362438047885	3
0	12643	4132.240238169314	4
0	12649	4137.838865897017	3
0	12656	4140.845519942539	2
0	12662	4141.216952503182	3
0	12666	4143.39047372092	4
0	12667	4143.765148874622	3
0	12672	4144.43676184684	2
0	12680	4145.714794415164	1
0	12688	4150.05485122673	0
0	12694	4150.997749555871	1
0	12697	4153.942800130668	2
0	12698	4154.848500511417	1
0	12706	4155.6484618883	0
0	12718	4160.703481597506	1
0	12720	4163.652526775093	0
0	12726	4164.767338522955	1
0	12729	4168.85301797339	0
0	12763	4181.688907002189	1
0	12766	4185.641987431964	0
0	12772	4186.02049152273	1
0	12777	4186.527218849642	2
0	12778	4186.734270727343	1
0	12785	4188.085400406581	0
0	12796	4188.666625874526	1
0	12799	4190.210554063198	2
0	12800	4193.206663896484	1
0	12807	4194.354963863592	0
0	12824	4201.618887024947	1
0	12830	4208.405044076776	2
0	12832	4211.194622289207	3
0	12836	4212.455175409754	4
0	12838	4212.96428602692	5
0	12840	4213.773499859195	4
0	12845	4213.949843186084	3
0	12852	4216.247707944408	2
0	12858	4217.887812326402	3
0	12865	4224.03521660441	4
0	12866	4225.015123754429	3
0	12873	4227.012402080368	2
0	12884	4233.235135463531	3
0	12890	4234.29410316284	4
0	12891	4234.971939945189	3
0	12896	4235.746051839477	2
0	12901	4236.153343650107	1
0	12908	4238.584851149206	0
0	12934	4240.300379573461	1
0	12940	4241.759612918035	0
0	12957	4246.000507252779	1
0	12961	4249.70643551669	0
0	12994	4261.88250842881	1
0	12999	4265.229619232102	2
0	13000	4266.019433251122	1
0	13006	4266.556377230197	2
0	13007	4267.244736084048	1
0	13016	4277.721489968613	0
0	13046	4287.904531727775	1
0	13047	4288.276322768106	0
0	13061	4291.526187602656	1
0	13063	4294.452442873031	2
0	13065	4294.700998397657	3
0	13069	4297.498320326384	4
0	13072	4298.092737728745	3
0	13077	4299.083907078089	2
0	13086	4301.511426149267	1
0	13094	4304.251721010692	0
0	13100	4304.448991178999	1
0	13101	4304.778312198033	0
0	13107	4304.86654339258	1
0	13108	4305.061088252364	0
0	13128	4311.006065194841	1
0	13129	4312.045353456929	0
0	13136	4312.360224693747	1
0	13138	4312.801995193992	2
0	13140	4313.337157415641	1
0	13145	4314.766843708466	0
0	13172	4327.767633580228	1
0	13174	4328.441548143532	2
0	13184	4334.679275522447	3
0	13191	4337.726621344701	2
0	13198	4340.706901079161	1
0	13204	4340.94183938718	0
0	13212	4342.153473770069	1
0	13213	4342.855267063638	0
0	13235	4347.624905359533	1
0	13236	4348.222312609011	0
0	13247	4353.031062290787	1
0	13248	4353.274131373823	0
0	13256	4354.421893967057	1
0	13257	4355.041216140415	0
0	13269	4357.338914490811	1
0	13274	4359.896241570315	0
0	13286	4365.269896865535	1
0	13287	4366.67738971058	0
0	13314	4382.545388744958	1
0	13315	4384.025396712035	0
0	13321	4385.504407481076	1
0	13324	4389.099985182287	2
0	13325	4391.273448487902	1
0	13334	4393.70776167117	0
0	13342	4395.223345944743	1
0	13345	4397.687215909656	0
0	13354	4398.90782633317	1
0	13357	4400.054008484667	0
0	13364	4402.090721077109	1
0	13367	4402.415793868972	0
0	13379	4405.15552547517	1
0	13381	4405.374629481172	2
0	13384	4405.709883823728	1
0	13390	4406.530974200871	0
0	13404	4407.824667690139	1
0	13408	4408.471520479289	0
0	13432	4419.024629635594	1
0	13433	4420.854002879922	0
0	13439	4421.189728725539	1
0	13442	4424.012805717511	2
0	13443	4426.077619728898	1
0	13448	4426.380677358279	0
0	13477	4432.691960800807	1
0	13482	4436.507704921114	2
0	13483	4437.697834473815	1
0	13490	4439.839309841889	2
0	13492	4439.8781213009	3
0	13493	4443.287230010196	2
0	13501	4444.669540652614	1
0	13507	4445.945696386973	0
0	13527	4459.042069006923	1
0	13528	4465.194261288911	0
0	13552	4477.006123260399	1
0	13553	4477.78979861825	0
0	13562	4480.912576219215	1
0	13563	4481.61532261205	0
0	13572	4483.705549731989	1
0	13575	4485.30912812308	0
0	13595	4493.281059004756	1
0	13597	4493.597168970846	2
0	13598	4495.290510324087	1
0	13603	4495.553716641404	0
0	13625	4504.73844606349	1
0	13626	4506.513830670609	0
0	13635	4510.474102747691	1
0	13636	4511.089055312671	0
0	13647	4514.756940827903	1
0	13653	4516.891686419197	0
0	13668	4523.640842161267	1
0	13671	4525.400576653795	0
0	13680	4527.072881962402	1
0	13682	4527.146625880708	2
0	13688	4528.024074898527	3
0	13695	4529.681034028252	4
0	13696	4529.99193505395	3
0	13702	4531.171347414789	4
0	13704	4531.391782266731	5
0	13706	4532.144541860906	4
0	13712	4533.452691006668	5
0	13714	4533.799061926353	4
0	13721	4535.011054183113	5
0	13722	4535.020146802571	4
0	13729	4535.587829766765	3
0	13735	4536.924180886976	2
0	13741	4537.32342916637	3
0	13744	4538.350730668051	4
0	13746	4538.841400243714	5
0	13749	4541.57700345484	4
0	13754	4543.095239316325	3
0	13760	4544.749797827788	4
0	13762	4544.937403481109	5
0	13764	4546.204256089698	4
0	13773	4548.226707854943	3
0	13781	4552.154735990744	2
0	13786	4552.431445015181	1
0	13793	4553.384030255449	2
0	13794	4554.133111299183	1
0	13802	4555.10537271121	2
0	13804	4555.498191320343	1
0	13809	4555.639654494488	0
0	13817	4556.533706533705	1
0	13820	4558.906560423053	0
0	13839	4563.222392171993	1
0	13841	4564.771616889065	0
0	13854	4571.093524091218	1
0	13860	4573.161467704869	0
0	13869	4575.300817308387	1
0	13870	4576.498310715988	0
0	13878	4577.122203754107	1
0	13879	4579.153366366724	0
0	13886	4581.005682862181	1
0	13887	4581.106685193262	0
0	13893	4581.588770497854	1
0	13894	4582.015742256243	0
0	13916	4590.930173332686	1
0	13919	4592.075207463663	0
0	13927	4596.936212087455	1
0	13930	4597.169549005911	2
0	13932	4597.384633761783	1
0	13937	4599.421777859515	0
0	13943	4599.698354632252	1
0	13945	4600.042476697084	0
0	13952	4602.267986164449	1
0	13956	4607.348385056654	2
0	13957	4609.225302005282	1
0	13963	4612.044773325154	0
0	14023	4628.453891061101	1
0	14028	4630.964715617862	2
0	14029	4631.27471280575	1
0	14034	4631.33964920488	0
0	14057	4639.123159320651	1
0	14058	4640.023163500987	0
0	14065	4640.576156966977	1
0	14067	4643.021599699783	2
0	14073	4647.888602694288	3
0	14074	4648.187162779834	2
0	14080	4648.528871064005	1
0	14085	4648.888823932344	0
0	14093	4653.716263709294	1
0	14094	4656.227986314703	0
0	14101	4657.767343037128	1
0	14103	4663.315303365848	2
0	14105	4667.339121458494	3
0	14106	4669.324993082982	2
0	14115	4670.700290855362	1
0	14121	4672.852051081825	0
0	14127	4673.019532846665	1
0	14129	4674.706191082619	0
0	14139	4677.648962754001	1
0	14140	4679.289356877498	0
0	14157	4685.644301411708	1
0	14159	4686.507510769304	2
0	14160	4686.686418633466	1
0	14167	4688.367604414951	0
0	14179	4694.010667631035	1
0	14180	4695.946917713434	0
0	14206	4703.549446017001	1
0	14210	4707.83568460581	2
0	14211	4710.07766562448	1
0	14219	4712.726188057476	2
0	14220	4713.528303370435	1
0	14225	4713.57729426411	0
0	14243	4716.80405412003	1
0	14244	4718.301468462411	0
0	14258	4724.263660597752	1
0	14261	4725.424915598943	0
0	14273	4727.564407601244	1
0	14277	4729.423121061265	0
0	14308	4739.657928118725	1
0	14309	4740.575275376307	0
0	14319	4745.749928432213	1
0	14320	4746.482805025482	0
0	14341	4749.458430390842	1
0	14344	4753.398644637468	2
0	14348	4760.063230369993	3
0	14350	4761.276764875441	4
0	14352	4763.587833277573	5
0	14353	4763.673482337752	4
0	14361	4770.389632312139	3
0	14366	4771.518639136416	2
0	14374	4773.087424934169	3
0	14375	4773.646234279866	2
0	14380	4774.50324000186	1
0	14386	4775.480455311664	2
0	14387	4775.560840807427	1
0	14393	4775.757215776086	2
0	14395	4776.057506199549	3
0	14396	4776.516732426027	2
0	14403	4776.609260429555	3
0	14404	4776.750766325307	2
0	14409	4777.096762149424	1
0	14419	4783.121616277429	0
0	14425	4783.226480099661	1
0	14430	4786.24362417173	2
0	14431	4788.142328019197	1
0	14437	4789.773965050323	2
0	14438	4790.451334352562	1
0	14443	4791.344092056444	0
0	14463	4797.34789668019	1
0	14468	4800.494818766257	2
0	14469	4802.597393277728	1
0	14474	4802.613035086266	0
0	14492	4811.188565200751	1
0	14495	4814.817198478528	0
0	14502	4816.459943602796	1
0	14504	4817.227939775454	2
0	14505	4817.384038704656	1
0	14510	4817.729545835291	0
0	14530	4821.759362801493	1
0	14532	4821.889700747005	2
0	14534	4822.393717193138	1
0	14540	4822.495822765363	2
0	14541	4823.390131308211	1
0	14547	4823.916093261979	2
0	14548	4823.982876975133	1
0	14557	4826.959638028757	0
0	14567	4831.028349809705	1
0	14568	4833.583164959667	0
0	14582	4839.23204808956	1
0	14583	4840.123360878059	0
0	14594	4840.344421924937	1
0	14599	4842.99977933721	2
0	14600	4843.588202851295	1
0	14609	4846.910381123983	0
0	14617	4850.453373330573	1
0	14618	4851.525606494085	0
0	14636	4854.769409420077	1
0	14639	4858.696619813093	0
0	14666	4863.41867930493	1
0	14667	4863.420951682367	0
0	14689	4869.447972032611	1
0	14691	4870.494962706348	0
0	14698	4873.043736845027	1
0	14699	4874.483705009133	0
0	14707	4876.141377387531	1
0	14708	4876.313420540709	0
0	14723	4886.005221250417	1
0	14724	4886.505733736724	0
0	14731	4886.759862111118	1
0	14733	4889.876797989614	2
0	14734	4892.28713433719	1
0	14742	4894.349521402452	0
0	14764	4897.797868649375	1
0	14767	4899.625897617279	0
0	14773	4899.727289032353	1
0	14780	4900.306233089089	2
0	14781	4902.383731344851	1
0	14788	4903.245844863586	2
0	14792	4904.620953148856	3
0	14794	4904.743592836494	4
0	14796	4905.027570317084	5
0	14797	4905.819982239698	4
0	14803	4907.201057369503	3
0	14808	4907.377370966383	2
0	14815	4910.139649801785	3
0	14818	4912.455102145254	4
0	14819	4913.817340199584	3
0	14825	4919.690305436736	2
0	14831	4919.892179538591	3
0	14833	4920.334040450477	4
0	14835	4921.744014195675	5
0	14838	4923.779399765333	4
0	14843	4925.218382231526	3
0	14848	4925.279342833754	2
0	14853	4925.342111105256	1
0	14861	4926.306364340829	0
0	14869	4927.368771722213	1
0	14870	4927.588041777474	0
0	14916	4938.267540165312	1
0	14918	4938.647120032471	2
0	14924	4943.446340945283	3
0	14925	4943.634008822757	2
0	14930	4943.67117418523	1
0	14935	4943.713461320706	0
0	14946	4946.847759382263	1
0	14950	4948.790436244777	2
0	14955	4950.771717816789	3
0	14956	4953.364257285902	2
0	14968	4955.42890173628	1
0	14975	4957.24316195206	2
0	14978	4961.72744841261	1
0	14983	4963.540770783156	0
0	15002	4968.085640050384	1
0	15007	4969.826163551237	0
0	15030	4972.361645314641	1
0	15031	4972.449491122156	0
0	15060	4985.729767018679	1
0	15061	4986.081768109479	0
0	15084	4994.115638946821	1
0	15087	4995.051572620181	2
0	15089	4995.922342067408	3
0	15091	4996.500553462416	4
0	15092	4999.139283161513	3
0	15098	4999.740469784761	2
0	15106	5001.429200922495	1
0	15113	5002.350296438965	0
0	15120	5007.220911168111	1
0	15122	5008.665894600731	2
0	15123	5010.88206936369	1
0	15130	5012.288547555698	2
0	15132	5012.341484416151	3
0	15135	5014.078267902991	2
0	15148	5020.921190065493	3
0	15151	5021.911905696612	2
0	15160	5024.128561646115	1
0	15165	5024.174003222727	0
0	15171	5024.310172411031	1
0	15174	5026.133407576392	0
0	15190	5031.584635930325	1
0	15193	5033.559695550003	0
0	15214	5041.735268436171	1
0	15215	5045.355998276705	0
0	15224	5046.780124245101	1
0	15236	5052.332079234046	0
0	15243	5055.288210027262	1
0	15248	5056.124451128092	0
0	15273	5061.369719801826	1
0	15277	5066.555465276222	2
0	15278	5067.092749511065	1
0	15286	5069.226240970805	0
0	15300	5073.056260977417	1
0	15301	5074.882212284917	0
0	15309	5078.63540316458	1
0	15314	5084.635835966728	0
0	15344	5091.696604627885	1
0	15346	5092.059466224722	2
0	15355	5098.092940214897	1
0	15360	5099.460502128483	0
0	15388	5104.723145839093	1
0	15391	5107.372962082209	0
0	15401	5109.372561080361	1
0	15405	5110.594404574755	2
0	15406	5112.683972176402	1
0	15412	5117.124466983797	0
0	15418	5117.650320854854	1
0	15420	5119.07497321762	0
0	15456	5136.376152730154	1
0	15460	5140.117102397261	0
0	15508	5164.13969797135	1
0	15510	5164.439125350448	2
0	15517	5165.794826430275	1
0	15526	5168.221015670502	2
0	15534	5177.433999437363	3
0	15535	5181.53625082235	2
0	15541	5183.971310811811	1
0	15546	5184.582728302255	0
0	15552	5184.864225471433	1
0	15553	5185.792601759556	0
0	15570	5188.235491076929	1
0	15573	5189.280085783139	0
0	15588	5196.015110631928	1
0	15589	5196.413180457328	0
0	15601	5199.632341181303	1
0	15603	5200.273695599542	2
0	15605	5203.610240839031	3
0	15606	5204.993346798336	2
0	15611	5205.165517261984	1
0	15616	5206.09725663413	0
0	15622	5206.407408659163	1
0	15626	5210.692207454386	0
0	15639	5219.013148404348	1
0	15641	5219.502898822414	2
0	15646	5223.461998599358	3
0	15647	5223.610275355246	2
0	15653	5224.487717796056	3
0	15655	5225.019429700222	4
0	15658	5227.440288989507	3
0	15664	5229.28876107647	4
0	15665	5229.705893542744	3
0	15674	5230.861156896463	2
0	15679	5230.963145132769	1
0	15689	5231.843070253055	2
0	15694	5232.684164846553	3
0	15697	5233.869825086265	4
0	15699	5235.381869948364	5
0	15700	5235.859962519757	4
0	15706	5237.105076117162	3
0	15711	5237.496474026415	2
0	15718	5240.305721990885	1
0	15723	5241.074060897892	0
0	15732	5244.288178538403	1
0	15733	5244.80992433552	0
0	15751	5249.133843826155	1
0	15752	5250.111637605692	0
0	15758	5250.669775080801	1
0	15761	5252.923538253437	2
0	15763	5253.934536122684	3
0	15764	5254.503806673798	2
0	15770	5257.054245569779	3
0	15771	5257.117727820078	2
0	15777	5258.216221464481	3
0	15779	5258.684292789467	2
0	15786	5261.751726557805	1
0	15792	5263.125108488265	0
0	15809	5264.817413317115	1
0	15817	5271.645121076776	2
0	15820	5274.246319252619	1
0	15825	5274.318498395051	0
0	15834	5275.623324914545	1
0	15836	5276.569823213601	0
0	15856	5279.680299710221	1
0	15857	5279.838754600437	0
0	15865	5283.408173866001	1
0	15866	5285.921220946709	0
0	15899	5289.619097550182	1
0	15902	5291.226742371781	0
0	15936	5305.742655732338	1
0	15941	5307.17232398932	0
0	15958	5312.133678777947	1
0	15959	5312.264045278532	0
0	15972	5315.522170959191	1
0	15973	5316.171640723986	0
0	15979	5316.3468769967	1
0	15981	5316.767620913315	2
0	15982	5317.318256084358	1
0	15991	5317.830630907231	2
0	15995	5319.223057781481	3
0	15998	5323.631203467485	2
0	16004	5323.791908358393	1
0	16010	5325.184392587935	0
0	16037	5329.528383103058	1
0	16041	5332.311712464683	0
0	16047	5332.904537079589	1
0	16048	5335.895103382255	0
0	16062	5336.455147212697	1
0	16067	5343.998112579174	0
0	16083	5347.201629260384	1
0	16090	5350.998045050091	2
0	16091	5351.169020471726	1
0	16099	5353.951161285382	2
0	16100	5354.486146644949	1
0	16109	5356.791250372501	0
0	16115	5356.843492711854	1
0	16116	5356.897016513107	0
0	16156	5375.175377929463	1
0	16157	5380.071853392033	0
0	16169	5380.836569840843	1
0	16171	5381.488950340616	2
0	16172	5384.586899274134	1
0	16178	5384.853283180096	2
0	16181	5385.256388876146	1
0	16186	5385.753045268673	0
0	16196	5387.723855711001	1
0	16198	5388.749781061634	2
0	16202	5388.925421505873	3
0	16205	5389.811719246461	2
0	16210	5389.947075106376	1
0	16217	5391.444078510882	0
0	16261	5405.459681044243	1
0	16262	5405.804779805718	0
0	16277	5414.398307231558	1
0	16279	5414.716793466293	2
0	16283	5415.518237134621	3
0	16288	5416.633716153279	4
0	16289	5417.960633121811	3
0	16295	5419.90834653675	2
0	16301	5420.297910490796	3
0	16304	5420.681090492195	4
0	16305	5422.538010015742	3
0	16313	5425.472858560096	2
0	16319	5426.6176830124	3
0	16320	5427.47938649643	2
0	16328	5431.511133826173	1
0	16333	5431.640453674866	0
0	16357	5436.237794295383	1
0	16361	5436.756940655432	2
0	16363	5437.091931813789	3
0	16364	5438.326163051015	2
0	16369	5440.197024364405	1
0	16374	5441.175654633082	0
0	16393	5444.833396665292	1
0	16395	5445.313060341485	0
0	16412	5446.749272165834	1
0	16416	5449.218045096541	2
0	16420	5453.712690998683	1
0	16427	5455.51306946418	2
0	16432	5456.968171995001	1
0	16438	5457.44373023259	0
0	16448	5460.433098975515	1
0	16452	5461.449043453222	2
0	16453	5465.078203387378	1
0	16458	5465.255497382113	0
0	16470	5469.640799683703	1
0	16474	5471.803720932228	2
0	16476	5472.477814884146	3
0	16478	5473.185043656392	2
0	16484	5473.30544599602	3
0	16486	5475.912475925144	2
0	16491	5476.339598318019	1
0	16501	5478.127407885791	0
0	16507	5478.317236873808	1
0	16509	5479.569312919733	2
0	16512	5480.361596465547	3
0	16513	5483.342640986719	2
0	16522	5487.549545685069	3
0	16526	5488.198664477964	4
0	16530	5490.242324814964	5
0	16532	5490.778762418401	6
0	16534	5490.828842699373	7
0	16538	5493.481642696574	8
0	16539	5495.325185092283	7
0	16545	5495.926860642362	6
0	16552	5498.650755854912	7
0	16553	5499.022150292758	6
0	16560	5500.131938594654	7
0	16561	5501.564606223805	6
0	16568	5502.863082776239	5
0	16574	5506.371348164459	4
0	16579	5508.501407062163	3
0	16585	5509.166529543823	4
0	16587	5510.842503310395	3
0	16592	5511.041946118851	2
0	16598	5511.241466785277	3
0	16602	5517.24779506354	2
0	16607	5517.500935581515	1
0	16613	5517.684813472404	2
0	16617	5519.736490377115	3
0	16620	5524.061500521733	2
0	16625	5524.141625200031	1
0	16633	5526.169766356546	2
0	16634	5528.714269846242	1
0	16639	5529.194112383217	0
0	16690	5550.566985857247	1
0	16691	5550.576929713692	0
0	16703	5552.408450902328	1
0	16705	5552.517200639172	2
0	16706	5553.47465501555	1
0	16713	5554.962086721824	2
0	16714	5555.062325613909	1
0	16720	5556.188211817806	0
0	16727	5556.514836565237	1
0	16728	5558.21462259718	0
0	16737	5560.004317391753	1
0	16741	5560.988283317907	2
0	16742	5561.093071256245	1
0	16749	5565.686831855944	0
0	16756	5567.451032167396	1
0	16759	5567.721690932324	0
0	16777	5577.290116094327	1
0	16780	5577.623002935029	2
0	16783	5578.000689669076	3
0	16784	5583.156182067718	2
0	16789	5583.403867751515	1
0	16795	5583.886800605664	0
0	16830	5594.36411007007	1
0	16832	5595.271289708034	0
0	16845	5598.739089428029	1
0	16846	5599.592101706531	0
0	16852	5600.445265847822	1
0	16853	5600.926198470382	0
0	16875	5612.282843898002	1
0	16876	5612.496844513915	0
0	16894	5616.466153589895	1
0	16896	5617.479460267022	2
0	16902	5620.185000632322	1
0	16909	5621.050995491837	2
0	16912	5621.413348960099	1
0	16919	5626.215633032462	0
0	16926	5627.362002485573	1
0	16930	5629.264256240438	2
0	16931	5633.931766237909	1
0	16937	5634.34494788266	2
0	16939	5634.356181499884	3
0	16944	5636.849359022847	4
0	16946	5638.164561127104	3
0	16954	5641.207546009374	2
0	16961	5643.173046323004	3
0	16962	5648.976977806345	2
0	16967	5649.153933582901	1
0	16975	5650.84085471949	0
0	16991	5654.313820654806	1
0	16993	5655.186759785863	0
0	17025	5663.982879237752	1
0	17026	5664.013330958496	0
0	17033	5665.288183842499	1
0	17035	5665.675603237647	2
0	17037	5666.317560741127	3
0	17038	5666.974217524751	2
0	17049	5670.575465338565	3
0	17051	5670.742172031723	4
0	17055	5672.414485548023	3
0	17063	5673.452976144065	2
0	17069	5674.819528768678	1
0	17075	5675.448132313495	2
0	17078	5677.489261276155	1
0	17083	5681.033974180025	0
0	17135	5694.320946296202	1
0	17137	5695.851600544389	2
0	17138	5695.867593430826	1
0	17145	5696.946182222675	2
0	17147	5699.749654979909	1
0	17152	5700.184197599267	0
0	17163	5701.305231997808	1
0	17165	5702.05892438578	0
0	17171	5702.09378867128	1
0	17173	5704.974856963547	0
0	17189	5712.696908459868	1
0	17191	5713.408203251499	2
0	17193	5714.888505798042	3
0	17199	5715.461639502773	4
0	17204	5718.231060336748	3
0	17213	5722.837128687823	2
0	17218	5723.382445639794	1
0	17223	5724.417761383047	0
0	17229	5725.416899989153	1
0	17231	5728.659049263065	0
0	17255	5736.266514651433	1
0	17257	5737.152808110019	2
0	17258	5738.432359937124	1
0	17266	5739.427997416905	0
0	17280	5743.190448664219	1
0	17282	5745.528658438283	2
0	17285	5746.981124556618	1
0	17292	5749.288980614445	0
0	17309	5752.710059477473	1
0	17310	5755.011356065767	0
0	17320	5755.327892076891	1
0	17325	5760.507732220013	0
0	17331	5760.707208339786	1
0	17333	5763.126532420843	0
0	17339	5763.273269093791	1
0	17342	5768.889734700853	0
0	17349	5771.323866331278	1
0	17352	5772.559389588853	0
0	17384	5779.773149224263	1
0	17386	5780.56354779606	2
0	17391	5791.228909087338	1
0	17397	5791.383397801847	2
0	17399	5792.074206218582	1
0	17408	5795.011564254623	2
0	17410	5796.886380569612	3
0	17411	5799.443676952784	2
0	17419	5800.278371209583	3
0	17421	5801.076690351758	2
0	17428	5802.416370589957	3
0	17433	5805.664615718856	2
0	17438	5805.794291272525	1
0	17447	5811.170333534757	2
0	17448	5812.067602431793	1
0	17454	5813.35128217966	0
0	17461	5815.105855072928	1
0	17462	5815.708341310718	0
0	17468	5816.089298054038	1
0	17470	5816.379651005797	0
0	17482	5822.347959535596	1
0	17485	5825.395441971955	0
0	17500	5829.170169201145	1
0	17504	5831.29525672358	0
0	17519	5833.867603565263	1
0	17520	5833.93876570329	0
0	17526	5834.40045935074	1
0	17527	5836.27632212341	0
0	17535	5836.907138267747	1
0	17537	5837.227338073388	2
0	17541	5840.422581599654	3
0	17543	5841.376029925085	4
0	17545	5841.487400758674	5
0	17546	5841.607144130703	4
0	17552	5844.185022310591	3
0	17557	5845.301760226759	2
0	17564	5846.880889031831	1
0	17569	5847.639346050369	0
0	17581	5849.790149426556	1
0	17585	5852.823194274688	2
0	17590	5855.95025258359	1
0	17597	5857.619522956378	2
0	17600	5862.558466366524	1
0	17605	5863.13432164881	0
0	17626	5869.13395757765	1
0	17632	5869.904749016132	2
0	17639	5872.68083525078	3
0	17640	5872.736626389148	2
0	17648	5876.198199679961	1
0	17655	5876.740816647938	2
0	17657	5877.78223726437	1
0	17663	5877.872213912649	2
0	17664	5878.733755716032	1
0	17670	5879.000289778234	0
0	17681	5882.343020927107	1
0	17683	5882.481340303197	2
0	17685	5883.287179733421	3
0	17689	5886.432914919255	2
0	17695	5887.190261048648	1
0	17701	5887.307557690747	2
0	17703	5890.352079046582	1
0	17710	5892.627651552611	0
0	17746	5903.574272215983	1
0	17747	5903.983350294786	0
0	17753	5904.17585330822	1
0	17757	5906.062735272636	2
0	17760	5907.003738811747	1
0	17765	5907.636973775212	0
0	17779	5912.569970974378	1
0	17783	5916.684452596428	2
0	17785	5918.082618700974	3
0	17787	5918.885749174458	4
0	17789	5920.101058277555	5
0	17790	5920.771280106036	4
0	17796	5922.038532538937	5
0	17797	5924.366947641576	4
0	17803	5925.529929567928	5
0	17806	5925.900831902072	6
0	17809	5925.982035188146	7
0	17810	5926.760600500212	6
0	17816	5927.189945672391	7
0	17818	5928.532789817883	6
0	17824	5928.602981320014	7
0	17825	5928.946475708142	6
0	17830	5929.300877051867	5
0	17836	5929.459815949396	6
0	17837	5929.481864015365	5
0	17844	5933.71161087039	4
0	17854	5934.737601856331	3
0	17859	5935.050947532277	2
0	17865	5935.420336326604	3
0	17867	5935.614160638824	4
0	17870	5938.615030249537	3
0	17876	5938.726602719142	4
0	17877	5938.733250117149	3
0	17882	5938.969591864956	2
0	17889	5941.520726750232	1
0	17893	5942.085583837008	2
0	17897	5942.876409194965	1
[...]
5	80086	26687.037821863617	6387.2039143781
5	80097	26689.592056780152	6389.7102079069
5	80102	26691.382955774891	6382.7835866003
5	80107	26692.227945599952	6380.1885082202
5	80112	26694.750326063332	6382.03830018
5	80117	26695.860498355114	6380.1357342995
5	80126	26704.045454477032	6381.3810970584
5	80225	26743.283656138149	6413.1177547764
5	80232	26744.403183110218	6409.3235579595
5	80250	26747.191568115981	6411.0968945559
5	80258	26748.948143307161	6403.0684601631
5	80289	26758.680975124686	6412.4403976649
5	80304	26762.215084806928	6413.3967851142
5	80327	26765.163057158061	6413.6252831635
5	80340	26772.269867168433	6419.2777082937
5	80365	26777.405315895775	6423.8754702714
5	80376	26779.587062005055	6420.0493003056
5	80402	26785.895885735181	6419.4377448192
5	80414	26788.547596158569	6415.7093510903
5	80419	26790.99879439208	6405.6133042276
5	80426	26794.783700225415	6408.7884390074
5	80447	26811.316324134968	6416.1658854482
5	80624	26863.522686167799	6457.1301086986
5	80633	26866.676680905916	6447.8790669475
5	80660	26873.303582892615	6447.1632171913
5	80665	26873.445063479291	6432.5636577333
5	80672	26875.001746785798	6432.0137143348
5	80681	26880.417669089154	6432.8162932614
5	80715	26888.274014584016	6428.9301854138
5	80749	26902.395986807841	6442.8067905086
5	80768	26907.453407118051	6443.2851737084
5	80974	26967.125894103988	6502.0828011659
5	80979	26967.955270333554	6500.9762842112
5	80984	26968.647133831786	6499.0654581082
5	80991	26971.992472534451	6498.2690833826
5	80998	26972.929682202468	6499.070739744
5	81010	26974.667463397991	6491.4054915346
5	81015	26976.447912074628	6477.6727435999
5	81023	26981.875769194304	6479.3829925377
5	81044	26984.702033433434	6480.2604280518
5	81049	26986.65739332176	6480.8802582142
5	81054	26989.146442295447	6481.3027403229
5	81061	26992.25630481159	6484.4051011229
5	81083	26995.882887852382	6485.2332782946
5	81092	26999.114013400743	6473.1082298885
5	81097	26999.702432360179	6470.6276760698
5	81104	27005.259654524991	6472.4752398721
5	81115	27016.636723034378	6477.6268050277
5	81125	27018.92995621125	6475.2148931563
5	81130	27019.17857728861	6474.1796713043
5	81136	27022.790971732838	6477.6349034925
5	81141	27024.320103686874	6476.3327026998
5	81148	27028.566762021072	6476.5862190806
5	81164	27034.742942110897	6476.6339986337
5	81178	27038.38915522113	6466.1055180328
5	81183	27038.611989618199	6465.2834136235
5	81192	27043.501029707764	6465.4386592149
5	81207	27047.933717358305	6469.2782230215
5	81224	27059.967919053173	6467.1819488783
5	81229	27060.57335945903	6467.3011634382
5	81238	27062.704476316044	6467.7059534085
5	81256	27072.79359749789	6473.1913275271
5	81301	27084.590304206817	6478.5185846443
5	81312	27086.992402795981	6473.3207300622
5	81317	27090.347584736142	6445.1440919511
5	81328	27096.165738236672	6450.503956052
5	81520	27154.331461821136	6508.5933351962
5	81543	27159.806383694727	6505.1600133696
5	81560	27162.393109597058	6502.5939393401
5	81583	27177.915943488809	6517.9613650703
5	81590	27183.215236020531	6518.5268360506
5	81595	27183.66775168057	6518.0603296078
5	81600	27184.605666215218	6513.6646450522
5	81607	27187.979648693307	6516.6075932454
5	81614	27190.179396497814	6518.3611471191
5	81635	27197.76989099468	6525.8618484936
5	81648	27202.503076666285	6527.6230530459
5	81674	27210.191364943943	6535.0760751209
5	81681	27213.633429401523	6537.4685786712
5	81689	27214.744212888892	6537.3520271801
5	81721	27222.18611056812	6537.8316966611
5	81750	27233.558944459798	6540.4050129086
5	81757	27236.204320096188	6539.9712912169
5	81768	27240.651821305843	6544.1350474702
5	81796	27244.841705426578	6541.0701182404
5	81811	27250.295585470738	6543.955463994
5	81828	27254.157022226354	6538.4509899873
5	81833	27255.375410398954	6535.2682145254
5	81842	27260.254029239946	6534.0965984355
5	82119	27343.263868225202	6600.9975818864
5	82125	27347.167776418134	6601.6402927496
5	82130	27348.201117398136	6592.8612570896
5	82141	27352.478217786909	6584.4240661643
5	82166	27358.045026923214	6588.1648796933
5	82185	27364.813042483537	6594.4108061654
5	82194	27368.035513545534	6590.9153002909
5	82214	27372.326953125006	6590.0861926537
5	82243	27381.379232276474	6591.431084461
5	82253	27385.992452651347	6594.3203249059
5	82268	27388.929832087789	6587.1233886717
5	82313	27410.046415909626	6604.747565131
5	82330	27412.853992039636	6604.991945234
5	82349	27417.200965004573	6594.5183572453
5	82432	27440.143232318178	6617.1054157276
5	82437	27440.504965466536	6611.0027353277
5	82443	27440.635676508614	6607.3241418081
5	82453	27443.686226085286	6589.8016893398
5	82476	27452.039525071567	6597.9125759565
5	82504	27458.946047672941	6601.1945019537
5	82512	27460.349288854568	6597.9739451079
5	82524	27462.772697771537	6587.4374162117
5	82529	27463.370669857152	6583.0002125213
5	82534	27464.494261702958	6575.4882693752
5	82539	27466.274608568963	6576.3449519523
5	82546	27468.402864093255	6575.9596131312
5	82561	27476.749772296107	6576.6842285922
5	82614	27493.207655553482	6586.3917066561
5	82625	27495.290822319601	6568.0714038251
5	82635	27498.051471197416	6565.8635063819
5	82657	27505.289268441796	6568.9348723356
5	82692	27518.286430420535	6572.360388705
5	82727	27528.881818506995	6574.6384149597
5	82733	27529.848467668552	6568.562643393
5	82738	27535.479791265426	6571.3982984016
5	82743	27539.160126459372	6572.6724137563
5	82752	27543.780947486147	6574.3694822335
5	82790	27554.77882863437	6583.7074442469
5	82813	27558.775217786979	6580.5977547613
5	82822	27562.150259821672	6583.3137566314
5	83092	27634.172867791419	6653.9032049005
5	83122	27642.649089338162	6649.2479119089
5	83127	27643.325037156338	6648.6649480955
5	83133	27644.234788779176	6648.7512997786
5	83138	27644.35863658547	6646.6263736856
5	83145	27649.694639044312	6650.5452412305
5	83206	27678.475691375388	6675.7724364137
5	83287	27712.594539088143	6708.7118026513
5	83299	27719.687704062709	6712.9429613733
5	83371	27743.673893177377	6733.9372805299
5	83378	27744.392167641445	6733.1075388073
5	83385	27745.468202481374	6733.6781439451
5	83390	27745.560826863774	6729.9040526204
5	83397	27752.343529196236	6734.078345487
5	83408	27753.540686858299	6732.6488739029
5	83422	27756.913884424657	6735.8222226853
5	83433	27759.382748437606	6736.448304629
5	83443	27767.039031678482	6739.4650450119
5	83462	27776.101071961163	6728.4181039305
5	83475	27779.90716063642	6725.7960616256
5	83493	27783.275798807671	6728.6590108739
5	83578	27814.218392197625	6756.6256979015
5	83612	27820.978517135408	6760.7059722345
5	83722	27855.1818588269	6793.5497081666
5	83732	27856.344363034576	6792.6068295325
5	83742	27858.632702492645	6792.0468943513
5	83749	27859.335654298784	6792.0361905056
5	83774	27867.943053499575	6780.4763646045
5	83818	27881.681612414223	6787.8542033271
5	83832	27886.822687680911	6792.1250286444
5	83856	27901.235243463668	6798.6131721171
5	83954	27928.882856097053	6820.2990197703
5	83959	27929.330245734896	6815.5961373031
5	83964	27932.206003278702	6815.6503254294
5	83969	27933.07579816754	6813.9695854795
5	83974	27935.41124428562	6810.5388393356
5	83981	27939.835907006293	6807.0253812355
5	84000	27947.420482598216	6810.179316156
5	84135	27991.410595833604	6842.3270120932
5	84188	28002.537464740722	6852.8430018391
5	84194	28004.709867048833	6837.1718224114
5	84203	28006.877499934131	6831.773226534
5	84255	28026.66632441921	6834.1855444486
5	84260	28026.666433485467	6830.4129427951
5	84265	28026.721960574199	6827.4337853617
5	84276	28032.362471428666	6813.747233289
5	84413	28076.283548112994	6855.7808961458
5	84421	28080.574874235841	6854.1910413418
5	84455	28095.254608848262	6861.2266817436
5	84490	28100.867742837002	6859.2435409891
5	84496	28101.630281728274	6858.9060591588
5	84503	28105.637096319997	6862.0220261901
5	84508	28106.903715833586	6861.0231715032
5	84515	28107.351515851717	6857.4662927291
5	84532	28118.447690287412	6857.247603822
5	84562	28128.983227279389	6867.4505487005
5	84575	28132.932131527702	6868.498192551
5	84582	28136.391612428611	6871.0000892216
5	84594	28143.957639776801	6877.9416754964
5	84601	28149.15443896844	6882.8061373859
5	84616	28161.377860465715	6889.3699743449
5	84627	28163.945572986796	6881.4639770425
5	84632	28164.03879821706	6865.7563454815
5	84639	28168.054913414573	6860.5170741485
5	84650	28174.708594706572	6862.0677038731
5	84682	28179.878021585475	6865.0979163044
5	84694	28184.771229291103	6856.1268601269
5	84705	28187.112644697145	6836.517626924
5	84716	28191.05587802758	6827.7048298419
5	84721	28193.443625763584	6828.2903018458
5	84726	28195.237902390978	6825.5529682695
5	84731	28198.40546867702	6821.4141323897
5	84738	28203.285666712722	6809.3082431998
5	84747	28209.218046288881	6813.9982162073
5	84814	28233.226056205828	6832.1998524853
5	84865	28256.409123367112	6850.6906640922
5	84878	28258.523533299557	6839.8150622362
5	84911	28265.141549038741	6841.8481427114
5	84940	28273.088618550524	6838.4785670673
5	84945	28274.856004222841	6832.5313310707
5	84950	28276.152071938659	6831.5917375093
5	84960	28281.083148543324	6833.2530324042
5	84987	28294.11725721293	6838.7045567789
5	85002	28296.429827825804	6840.7156469966
5	85007	28296.837907658008	6836.8261028118
5	85014	28298.030496893888	6832.520928415
5	85025	28299.035707596483	6825.0521756002
5	85030	28303.795877766245	6826.9718423419
5	85039	28306.744876645119	6826.7910021802
5	85072	28312.916829961815	6807.0411794886
5	85077	28314.358051426565	6806.8524609717
5	85086	28317.960729686076	6804.7639708556
5	85095	28320.675901400478	6801.1748920529
5	85120	28325.369159185177	6803.9055093617
5	85136	28331.587583006372	6801.9131596595
5	85141	28332.176692688804	6798.6778970886
5	85152	28340.280764295957	6798.4256430034
5	85185	28352.578279323107	6805.6386132314
5	85198	28355.169295097722	6807.0765786199
5	85203	28355.6484810992	6801.6056666186
5	85208	28356.234589202184	6791.8806028634
5	85221	28366.735361265208	6798.7709069971
5	85245	28371.744637541906	6793.8144391932
5	85259	28380.963341705914	6800.5824720857
5	85322	28395.421186703843	6812.8567000422
5	85339	28398.153462693483	6806.4281617884
5	85351	28399.256858845352	6802.9658371714
5	85358	28402.970490500905	6801.878370901
5	85377	28409.708181681193	6800.3833579981
5	85545	28459.692805489199	6845.3405255665
5	85553	28462.584151738162	6843.4590844176
5	85563	28462.801367847907	6836.2427322781
5	85573	28465.74087107501	6832.0864348186
5	85588	28474.158936798704	6840.0498155951
5	85593	28476.372764105663	6839.3344368168
5	85598	28478.880683297755	6834.3697627325
5	85605	28481.509295156364	6829.5878513916
5	85620	28493.611644556701	6840.9220504104
5	85635	28504.450169827882	6842.9208540042
5	85650	28506.676375689809	6843.9950206679
5	85661	28510.864440031512	6846.5362944845
5	85743	28537.457938436167	6872.926203872
5	85860	28574.771355078268	6901.0116128279
5	85867	28577.627559659853	6882.2803612005
5	85897	28588.633098102448	6880.3456141812
5	85902	28590.440531100118	6879.6769905395
5	85907	28592.222878918769	6873.2831249728
5	85920	28598.468309725672	6878.517333988
5	85961	28613.676807392365	6881.7223079543
5	85966	28615.266615034679	6882.3966948912
5	85973	28626.174449189944	6893.016671338
5	85987	28631.63843798687	6895.4993475688
5	86008	28633.980335571338	6894.104690171
5	86025	28643.125273505241	6901.228373592
5	86037	28646.761083220768	6904.1208848335
5	86047	28651.26948994748	6905.9550555332
5	86064	28655.045716538276	6897.2376750966
5	86071	28657.069972870483	6885.7396847697
5	86078	28659.747753606234	6885.8819325059
5	86090	28660.684097620946	6884.1971811993
5	86095	28663.152019020584	6884.7533441437
5	86108	28667.693206719008	6880.0057038345
5	86137	28675.961339249	6882.6725792637
5	86144	28679.061053528593	6874.9723667225
5	86163	28685.071163025805	6871.5200821562
5	86171	28686.849242866789	6871.0636101281
5	86189	28694.337678575541	6854.741863385
5	86198	28697.661752845864	6848.2439562704
5	86219	28704.959402702995	6852.1684936079
5	86229	28708.318533154205	6847.2953967517
5	86243	28715.804758916075	6841.7292428935
5	86274	28723.017759988206	6848.1896828543
5	86287	28728.050863130877	6845.9665961895
5	86302	28736.041275862679	6853.6128916012
5	86325	28740.888859586213	6854.0507208582
5	86364	28760.417698629556	6869.3474486308
5	86375	28762.25334049615	6867.6989009818
5	86382	28765.312875129122	6868.1900750313
5	86395	28767.885421075152	6867.6857428799
5	86410	28773.850027102149	6857.7550095706
5	86420	28774.694171585777	6857.7375408553
5	86425	28776.214455534384	6856.0710485717
5	86431	28778.252491221499	6845.0816348885
5	86436	28778.642210219128	6841.2946357529
5	86442	28781.128125785666	6839.4957355806
5	86451	28782.856204059742	6832.8836790618
5	86602	28831.388224225816	6859.547803685
5	86607	28831.391750506791	6859.5464160584
5	86612	28831.45699338241	6856.3761318383
5	86620	28832.095059478315	6847.7991464574
5	86632	28836.000396378014	6849.7023513259
5	86657	28848.48536555797	6851.4733591347
5	86666	28851.525250717164	6852.0602350272
5	86673	28857.415651136757	6855.4631370644
5	86698	28866.407014373818	6862.590548537
5	86715	28867.84820405937	6853.3597846201
5	86723	28869.534186709677	6852.5538910925
5	86731	28872.891906489852	6848.4715652917
5	86736	28873.826459531195	6840.3996569189
5	86741	28874.243290062359	6834.990221125
5	86746	28876.951425363339	6834.8124684949
5	86759	28882.626101760342	6834.7534793251
5	86989	28953.384194605792	6904.337568488
5	87030	28970.235847230979	6902.1446596242
5	87051	28971.514689152638	6900.9088446532
5	87063	28974.844212497709	6900.556986476
5	87095	28982.618775117178	6904.2400158802
5	87103	28983.653740067433	6901.8642493144
5	87117	28987.713386242582	6904.0601771064
5	87122	28989.655841545189	6902.4332141767
5	87127	28990.839010695791	6897.1715629274
5	87132	28994.234036733856	6894.2958878682
5	87137	28995.850725947174	6893.6893515441
5	87144	28997.053412712345	6891.2402268656
5	87151	29002.670508574075	6894.5397681268
5	87185	29015.154679086571	6904.262849987
5	87290	29045.260310548389	6931.3680089338
5	87300	29045.852980655899	6923.5323512237
5	87317	29051.549057769625	6925.9317559612
5	87400	29078.770413367989	6953.0672945757
5	87413	29080.31790307715	6949.9942020234
5	87425	29082.537963936722	6927.9426942272
5	87430	29084.193251178048	6922.6642873615
5	87437	29088.929201491557	6927.0332561069
5	87452	29094.628960441392	6928.8791676761
5	87470	29096.997134879633	6927.0263123085
5	87475	29098.388749269126	6924.5049871793
5	87481	29100.402581045522	6922.7461495685
5	87491	29107.575229315019	6928.0220694261
5	87501	29109.73571930383	6927.8689907052
5	87507	29112.717870266842	6926.5607072051
5	87514	29115.453097422814	6910.9889771254
5	87529	29127.945735743178	6914.6620061722
5	87552	29134.896770435241	6915.7186971418
5	87589	29145.275230183558	6922.0889924365
5	87602	29148.954435841055	6924.89886458
5	87612	29153.840011043522	6921.4338462012
5	87623	29155.873038158809	6921.682629894
5	87640	29168.168376032084	6932.6001857295
5	87673	29174.188602448949	6931.5912839307
5	87722	29189.193333022653	6942.3364955648
5	87736	29196.846256436405	6942.3496862162
5	87795	29217.985819879283	6950.7664758169
5	87858	29242.572806044598	6972.8639219556
5	87869	29249.115885355683	6966.5878878707
5	87903	29263.03402581248	6976.4627618977
5	87912	29266.361851809295	6976.5438709421
5	87927	29268.499351250462	6971.2269002851
5	87946	29271.449743114627	6973.6155521962
5	87951	29271.727460668747	6973.2213974649
5	87968	29277.786670838561	6963.7083779205
5	88020	29287.490921930856	6969.6974797929
5	88032	29291.881531068103	6962.9644376228
5	88045	29295.720362062059	6943.8984171144
5	88059	29301.962847318091	6943.6726481723
5	88078	29308.047628338118	6949.518726904
5	88087	29310.07395585849	6947.0354328155
5	88131	29325.801703436362	6957.3725064834
5	88138	29330.613816331784	6959.544361332
5	88152	29335.194197786059	6954.7660959696
5	88172	29342.890604959259	6952.323059209
5	88231	29361.963188939982	6945.1374115201
5	88236	29362.259511186143	6930.8426814413
5	88251	29372.447702499517	6932.9252515451
5	88273	29382.302557785524	6939.7125860179
5	88285	29387.846069370882	6936.1163354092
5	88290	29389.228036522798	6933.1738130139
5	88299	29392.072923420184	6931.0968211285
5	88344	29415.077221640234	6947.075641252
5	88355	29416.130416515443	6942.2902370084
5	88362	29418.752432999253	6944.0936076391
5	88372	29422.571595441931	6946.6296496869
5	88378	29425.3109248039	6948.855226886
5	88387	29427.162008158689	6942.7112786139
5	88424	29433.232918118177	6948.3450981552
5	88439	29444.098373842673	6957.9652835554
5	88535	29476.596604849266	6987.2977046519
5	88558	29482.94397279791	6985.0446221548
5	88565	29484.803124703265	6980.6611551791
5	88574	29489.514774766309	6982.2227859938
5	88585	29492.101751106995	6979.9853194686
5	88592	29494.013592329681	6979.2683572434
5	88599	29501.398158503236	6985.7869712262
5	88635	29515.473924494992	6986.0849083238
5	88674	29525.496936466746	6972.1368882733
5	88681	29526.603062087378	6968.6471844732
5	88694	29531.180727852108	6971.2588573069
5	88704	29533.19120372507	6973.0087154868
5	88709	29534.438308147385	6973.3414605718
5	88717	29539.685946604958	6975.9908938127
5	88734	29544.081515495375	6975.761681864
5	88740	29547.170752703055	6975.7444563494
5	88756	29563.867253864314	6989.5136669259
5	88777	29571.926321362837	6981.0678330001
5	88782	29572.526713017212	6970.7966679811
5	88791	29576.558121048234	6958.0001961054
5	88818	29585.252887051757	6955.8322563833
5	88909	29614.891579741253	6967.319113174
5	88914	29615.903649624131	6966.9697532672
5	88919	29616.689320490161	6964.6003729948
5	88925	29619.131871924418	6966.8391892167
5	88932	29619.640951278789	6955.6492547113
5	88942	29621.945214132166	6957.2741881219
5	88951	29631.969774720665	6967.0375830383
5	88961	29632.211694043317	6963.0037385059
5	88969	29636.921607489259	6958.0778816751
5	88993	29647.652638255876	6968.5941389825
5	89038	29657.472864519237	6978.1309986706
5	89044	29659.816767988215	6971.0496113151
5	89049	29663.846068753709	6969.1134125028
5	89056	29669.884495153074	6968.2004068946
5	89075	29677.168264491762	6969.6237977919
5	89114	29684.038209283495	6975.8607048762
5	89320	29757.485882038583	7045.873099693
5	89326	29759.487305520579	7046.8336729857
5	89331	29765.077512377553	7050.3816739154
5	89344	29770.082434667775	7042.0699780564
5	89383	29779.554589234804	7046.1515707347
5	89391	29779.838813835289	7045.3470653183
5	89409	29787.119103642363	7050.2126488316
5	89421	29788.378187794541	7045.6035958768
5	89426	29792.074991409328	7037.6325934207
5	89432	29795.637900310804	7037.6559828659
5	89441	29799.258688485959	7033.6123917523
5	89466	29802.89817521808	7035.8529529748
5	89472	29805.669179880908	7030.070512424
5	89478	29807.040083504003	7029.1807613641
5	89491	29814.911894408585	7030.6525672378
5	89533	29825.966457254668	7022.781197579
5	89542	29828.041621331917	7024.3491226811
5	89551	29831.332356522025	7026.5618568412
5	89567	29834.366253516418	7025.8026034601
5	89574	29835.157974212104	7012.3982303522
5	89580	29835.609650149492	7011.9687776412
5	89585	29837.561508370364	7006.7479261912
5	89594	29839.485002301879	7004.7510216644
5	89616	29848.989675047151	7007.1638436269
5	89633	29854.054201725337	7003.1760730432
5	89643	29857.054147540103	7004.5345410049
5	89695	29875.329488373572	7015.2203739881
5	89708	29879.146266380516	7012.253659541
5	89739	29885.950919438721	7013.1979906283
5	89754	29891.370866341196	7010.5774194279
5	89786	29902.350788484549	7017.0387688625
5	89795	29905.294985795278	7017.7643066764
5	89801	29905.786571053436	7017.5907007086
5	89812	29908.47266306157	7016.3884272786
5	89823	29910.718485672923	7016.7406062298
5	89828	29913.370946208782	7018.4010332556
5	89835	29914.7382596525	7013.7051491387
5	89876	29925.000415228623	7017.0751786956
5	89881	29925.50209703685	7004.5548630402
5	89886	29925.614081648702	7001.5049176368
5	89891	29926.484351107894	6994.7820990477
5	89896	29927.725097975347	6991.3214668189
5	89904	29930.873674679398	6982.4391191052
5	89911	29932.394707806628	6978.5703811571
5	89928	29938.853798988983	6984.3878679016

