version 2
run Third-n5-16-20191016-17:05:09-8088
attr configname Third-n5
attr datetime 20191016-17:05:09
attr experiment Third-n5
attr inifile omnetpp.ini
attr iterationvars ""
attr iterationvarsf ""
attr measurement ""
attr network org.omnetpp.queueing.Pizza
attr processid 8088
attr repetition 16
attr replication ""
attr resultdir results
attr runnumber 16
attr seedset 16
param **.PS.maxInventoriedPS 5
param **.U1.interArrivalTime exponential(4s)
param **.U2.interArrivalTime exponential(6s)
param **.PS.serviceTimeForInventoryU1 exponential(1.4s)
param **.PS.serviceTimeForInventoryU2 exponential(1.4s)
param **.PS.serviceTimeDirectU1 exponential(1.8s)
param **.PS.serviceTimeDirectU2 exponential(1.8s)
param **.PS.probabilityProducing 0.8
param **.CS.serviceTimeU1 exponential(2.3s)
param **.CS.serviceTimeU2 exponential(2.3s)

vector 0 Pizza.EntryQueueU1 queueLength:vector ETV
attr interpolationmode sample-hold
attr title "queue length, vector"
vector 1 Pizza.CS queueLength:vector ETV
attr interpolationmode sample-hold
attr title "queue length, vector"
vector 2 Pizza.EntryQueueU2 queueLength:vector ETV
attr interpolationmode sample-hold
attr title "queue length, vector"
vector 3 Pizza.sink lifeTime:vector ETV
attr interpolationmode none
attr title "lifetime of arrived jobs, vector"
attr unit s
vector 4 Pizza.sink lifeTimeU1:vector ETV
attr interpolationmode none
attr title "lifetime of arrived jobs, vector"
attr unit s
vector 5 Pizza.sink lifeTimeU2:vector ETV
attr interpolationmode none
attr title "lifetime of arrived jobs, vector"
attr unit s
0	0	0	0
0	16	3.973083641955	1
0	21	4.688305459949	2
0	25	8.005835543379	3
0	27	8.754840503303	2
0	33	9.553892796862	1
0	40	9.767627850679	0
0	50	11.325688939559	1
0	52	12.591572053078	0
0	58	12.609991317831	1
0	60	12.786700685723	2
0	62	13.030425396742	3
0	64	16.551404060167	2
0	71	18.61491405505	3
0	72	19.903733233217	2
0	79	21.402619895244	3
0	81	21.621709219642	4
0	83	22.027484820274	5
0	84	22.383073972487	4
0	92	26.432138136085	3
0	98	26.64852587591	4
0	99	29.125611420955	3
0	104	29.152165671212	2
0	109	29.798531442742	1
0	114	30.144465788901	0
0	133	31.93058419436	1
0	134	31.932419982644	0
0	147	35.363005289088	1
0	150	37.350788177622	2
0	152	37.891938596961	1
0	158	39.530411124144	2
0	162	46.174159537317	3
0	165	51.08878137849	4
0	168	54.651326341718	3
0	174	57.485593517649	2
0	180	58.035444835638	3
0	182	59.563469664081	2
0	191	63.16960539274	3
0	193	64.057994916244	4
0	194	67.83014028574	3
0	202	68.981649952999	2
0	208	69.993545175036	1
0	216	71.233217805584	0
0	240	83.651390919186	1
0	242	84.181814001803	2
0	243	85.785433058559	1
0	249	90.855956448707	0
0	262	93.806543549916	1
0	269	101.805547959476	0
0	282	104.264184194869	1
0	286	107.134206457703	2
0	288	107.374453417781	3
0	290	109.672411529764	4
0	291	109.878269037735	3
0	298	112.695572912823	2
0	304	112.796810400644	3
0	305	115.146949889492	2
0	313	120.632396161785	1
0	322	121.017594872853	2
0	323	122.673047047709	1
0	328	122.67761570593	0
0	359	128.132566647009	1
0	361	128.590805205153	2
0	362	129.856360638382	1
0	367	129.934567809583	0
0	390	136.275801708859	1
0	391	136.368780366465	0
0	406	142.212712504192	1
0	408	143.224184261016	2
0	409	146.66963118995	1
0	414	147.009466569257	0
0	424	149.187189244212	1
0	430	152.721483790747	0
0	455	159.815212037356	1
0	456	161.669281011114	0
0	473	166.964600376583	1
0	476	168.635718020615	2
0	477	169.020156407928	1
0	483	169.136731465722	2
0	487	171.35112999982	1
0	493	172.492800030535	2
0	494	172.925326093361	1
0	501	174.057608934606	0
0	507	174.786609720865	1
0	509	175.198609826107	2
0	512	177.04612143852	1
0	522	183.998334939159	0
0	553	192.802131245606	1
0	557	193.639876217104	2
0	559	193.698840161832	3
0	563	195.866561372058	4
0	564	196.384257765291	3
0	570	197.933428710484	2
0	579	201.923860504	3
0	580	201.98923262192	2
0	591	204.654387413066	3
0	592	208.05330907485	2
0	598	208.433064407764	3
0	601	213.040413889819	2
0	606	213.182095417499	1
0	612	214.025086093747	0
0	621	214.673416583229	1
0	622	215.873012609087	0
0	660	222.572590158066	1
0	661	223.154295102591	0
0	667	223.361442407226	1
0	674	226.626924734667	0
0	680	227.298968385948	1
0	683	228.247183080889	2
0	686	230.779941993975	1
0	693	232.825413810551	2
0	697	233.65039028648	3
0	698	235.094783097214	2
0	705	235.816659630626	3
0	707	235.816677438485	4
0	708	236.694458287031	3
0	714	237.001815857321	4
0	716	237.566465564499	3
0	722	239.585797184496	2
0	727	240.668433657041	1
0	734	244.777640782042	0
0	752	248.775178457662	1
0	756	251.025493631481	0
0	766	255.149111166956	1
0	767	255.249516811118	0
0	799	264.429563040697	1
0	800	264.945840824901	0
0	816	266.939877077825	1
0	820	270.872093092947	2
0	821	273.744064201641	1
0	832	276.848392357667	0
0	838	277.175823706185	1
0	839	277.246156724725	0
0	874	288.010729427854	1
0	876	288.122192476281	0
0	915	299.022909194243	1
0	916	300.637521648621	0
0	930	302.967609231978	1
0	933	304.353298726901	0
0	944	305.493423762827	1
0	946	305.76721257907	2
0	951	307.528675662098	1
0	957	310.405466853395	0
0	963	310.982224530852	1
0	965	312.062197746602	2
0	967	312.810194199194	3
0	970	314.345439860266	2
0	975	315.567166257451	1
0	981	315.665511228098	0
0	998	317.83717868925	1
0	1002	319.080710255405	2
0	1004	319.250646085184	3
0	1005	321.54789600964	2
0	1012	322.936317720715	3
0	1014	326.735709679868	4
0	1016	327.487053073702	5
0	1018	328.978204950522	6
0	1020	329.433847774031	7
0	1022	332.306384253724	8
0	1024	333.770231158961	9
0	1025	336.720423369751	8
0	1032	340.152132516648	7
0	1038	340.320972304986	8
0	1041	341.254175889168	9
0	1044	343.1043297387	10
0	1045	343.582635258287	9
0	1054	347.031919192125	8
0	1060	348.481591229995	7
0	1067	352.093385147448	8
0	1068	353.63579520172	7
0	1075	353.817983157664	8
0	1076	354.316404322287	7
0	1083	356.820828130403	6
0	1088	358.593899635056	5
0	1093	359.212556479213	4
0	1105	362.833155529166	3
0	1115	365.846528113583	4
0	1117	366.852167658714	5
0	1120	367.768714646322	4
0	1127	368.142065728038	5
0	1130	368.380740029804	4
0	1139	372.261720720318	3
0	1145	373.41800534216	4
0	1147	374.079543923855	5
0	1149	374.302815122102	6
0	1151	374.46884825198	7
0	1153	377.674436348252	8
0	1155	379.176903515855	7
0	1161	382.053856979336	6
0	1169	383.363588815513	5
0	1175	386.952056600035	4
0	1181	387.618001411139	5
0	1182	389.022022045215	4
0	1192	391.920827602209	5
0	1193	392.097238014374	4
0	1200	394.75372035463	5
0	1201	395.022478967452	4
0	1210	399.524209462019	5
0	1211	399.975516207328	4
0	1218	401.24583989177	5
0	1220	401.490697253567	6
0	1222	403.081186259311	7
0	1224	406.861647164164	8
0	1228	407.841248698986	9
0	1230	409.049844695392	10
0	1231	409.192358543154	9
0	1237	409.542183404417	10
0	1239	409.981610279485	11
0	1241	411.682157462409	10
0	1248	412.326009868417	11
0	1251	413.895682030992	10
0	1261	419.543314656859	9
0	1267	422.849699404027	8
0	1272	422.928035143754	7
0	1278	423.636356942202	6
0	1283	425.010875925193	5
0	1288	426.524405007346	4
0	1293	427.285842469225	3
0	1301	430.851929973635	2
0	1308	431.485926803815	3
0	1310	431.515462457661	4
0	1314	438.535127919931	5
0	1315	439.936458232049	4
0	1321	440.635854260903	5
0	1324	442.378550042546	6
0	1325	443.653560327908	5
0	1331	444.90628850081	4
0	1336	444.914442194039	3
0	1341	445.163417718467	2
0	1347	446.160483419338	1
0	1353	447.903840378439	0
0	1359	449.696270743826	1
0	1363	450.832224852067	2
0	1367	452.594408900149	3
0	1372	455.510130048598	2
0	1378	455.691639849925	3
0	1386	456.777885519208	4
0	1389	457.715050266425	3
0	1395	457.965711072164	4
0	1396	458.814884922459	3
0	1402	459.234281951653	2
0	1407	459.705925570418	1
0	1413	460.089293151921	2
0	1416	462.233474620566	3
0	1419	463.614757215601	2
0	1424	463.849515828829	1
0	1430	465.820627275265	0
0	1436	466.955864383051	1
0	1437	467.081865748667	0
0	1476	479.619225231972	1
0	1477	480.58486098363	0
0	1483	481.670460464054	1
0	1484	482.179911588614	0
0	1491	482.682067717419	1
0	1493	487.729286400354	0
0	1510	489.915216873062	1
0	1513	490.949383438949	0
0	1519	491.600441042944	1
0	1520	491.830483318092	0
0	1535	498.493887027769	1
0	1536	499.606453738675	0
0	1542	500.485890090649	1
0	1543	501.148822335562	0
0	1550	506.253564440242	1
0	1553	506.564640638362	2
0	1555	507.164531984545	3
0	1557	507.45495164937	2
0	1564	509.474250567597	1
0	1571	511.531138299947	0
0	1596	515.559725717593	1
0	1598	515.83301475556	2
0	1602	517.65662475479	3
0	1603	518.198568026016	2
0	1609	518.403757197761	1
0	1614	518.414924920013	0
0	1623	523.349076124115	1
0	1624	525.198142632507	0
0	1636	526.439742687475	1
0	1637	527.256926851197	0
0	1659	534.315937740412	1
0	1665	535.878700636496	2
0	1669	537.2629626503	3
0	1670	537.490536838074	2
0	1677	538.605056776956	3
0	1680	539.112024563201	2
0	1687	540.647500457318	1
0	1694	542.414563023032	2
0	1696	545.076495964644	3
0	1698	545.658147573547	4
0	1702	549.765013338206	5
0	1703	551.927278141156	4
0	1708	552.061514504577	3
0	1717	553.746521309554	2
0	1723	554.495830069697	3
0	1729	561.134498454884	2
0	1735	561.233244922099	3
0	1736	563.382008184614	2
0	1742	563.806248684263	3
0	1746	564.677322542071	4
0	1752	568.242385825619	5
0	1754	569.877444779658	6
0	1755	573.241045547838	5
0	1762	574.602167128266	6
0	1767	585.675524048406	5
0	1773	585.864130664652	4
0	1781	587.055210078934	3
0	1786	587.49443354125	2
0	1793	589.43411023608	1
0	1798	589.802522357398	0
0	1818	595.46779319956	1
0	1819	597.015469345851	0
0	1834	598.92557840459	1
0	1836	599.491807520461	2
0	1839	602.380903551393	1
0	1846	602.90367556056	2
0	1848	603.234241936844	3
0	1850	603.890545342824	2
0	1857	604.243966338728	3
0	1858	605.394659332565	2
0	1863	605.756337952767	1
0	1869	606.458426150457	0
0	1884	609.275520257519	1
0	1886	610.633990414817	2
0	1887	612.366762188699	1
0	1896	616.24398535392	0
0	1911	621.397819117516	1
0	1913	621.755735633938	2
0	1915	623.426689453855	3
0	1919	625.203213237562	4
0	1920	626.087775855498	3
0	1926	629.86951129115	2
0	1935	631.085043603126	3
0	1937	631.316562897329	4
0	1938	632.006283198919	3
0	1943	632.034631213335	2
0	1949	636.909896888302	1
0	1956	638.417993880987	0
0	1962	638.514305971518	1
0	1964	638.940758288243	2
0	1966	643.022914020427	1
0	1972	643.964866685482	2
0	1975	645.643085775177	1
0	1984	649.947169311475	2
0	1988	650.587366029489	3
0	1991	651.657017073065	2
0	1996	652.377274969652	1
0	2002	653.300616955677	2
0	2006	653.905096589257	3
0	2010	657.347672323183	2
0	2017	657.674970152753	3
0	2019	659.2814045134	4
0	2021	659.669710553586	3
0	2030	661.055434938018	4
0	2031	661.617148267279	3
0	2036	661.618742688559	2
0	2042	662.235152029363	3
0	2046	664.768741232224	2
0	2051	664.914020787259	1
0	2059	667.827594672915	0
0	2066	669.185638834722	1
0	2067	669.447377502041	0
0	2082	671.060285509615	1
0	2084	674.39750394118	0
0	2111	680.40412943796	1
0	2113	680.971409742948	2
0	2115	681.01255144985	3
0	2117	683.233312534425	2
0	2125	684.623092830216	3
0	2126	684.705559033958	2
0	2136	685.919769331225	1
0	2142	685.969102002566	2
0	2147	688.867371773027	1
0	2153	689.119268289643	0
0	2165	692.35193761569	1
0	2167	692.866125230134	2
0	2170	694.968719173352	1
0	2175	695.2208787777	0
0	2182	696.352442362348	1
0	2183	696.825061394228	0
0	2196	700.32864751698	1
0	2198	700.648596803578	2
0	2200	701.287074455393	1
0	2207	704.022536153789	2
0	2208	704.135866030265	1
0	2213	706.047276126161	0
0	2242	709.279265943533	1
0	2244	712.785384724203	0
0	2256	713.70823000487	1
0	2257	713.897432976584	0
0	2266	715.15568618365	1
0	2267	717.277493533017	0
0	2294	726.601895161144	1
0	2296	727.252977628123	2
0	2297	727.845124413665	1
0	2304	729.651505009679	2
0	2305	729.923383633265	1
0	2312	731.773979543692	2
0	2314	732.432944388919	3
0	2315	733.075523955013	2
0	2325	735.847629389245	3
0	2327	736.030721344402	4
0	2329	736.032358925093	5
0	2331	738.096729213649	6
0	2332	739.415701828913	5
0	2340	742.327473256457	4
0	2346	743.834684225196	3
0	2351	743.934374530459	2
0	2356	744.299403501143	1
0	2361	744.85153955269	0
0	2390	749.660872215712	1
0	2395	752.059412945461	0
0	2404	755.08217223676	1
0	2405	756.556666340895	0
0	2426	762.535286330069	1
0	2428	762.703754369983	2
0	2430	762.737383904231	3
0	2432	763.040773199199	4
0	2433	763.062504917566	3
0	2439	763.272729067702	4
0	2441	763.591775266262	5
0	2444	765.526716301401	6
0	2446	767.035619664735	5
0	2451	767.971336565873	4
0	2457	770.94848104736	5
0	2458	771.736675805087	4
0	2464	772.877036238553	5
0	2466	772.961765135835	6
0	2468	774.077719442056	7
0	2471	775.587648509182	8
0	2473	775.639851832301	9
0	2475	776.800093839126	10
0	2476	776.96313457142	9
0	2483	780.769291381854	8
0	2491	782.886660126936	9
0	2497	790.302842632481	8
0	2503	790.979615433019	9
0	2506	791.456062939402	8
0	2511	791.818199524845	7
0	2520	794.252258270059	8
0	2523	795.443692606944	9
0	2526	796.540376220117	10
0	2528	800.850794572856	9
0	2533	801.211606656136	8
0	2538	801.662111694506	7
0	2552	812.193372154606	6
0	2560	814.761787437155	7
0	2562	818.032026773426	8
0	2563	818.626663726051	7
0	2570	821.465549427949	6
0	2575	821.841301526614	5
0	2581	822.918329288693	4
0	2587	823.552611361239	3
0	2592	823.768263437039	2
0	2601	826.928267153903	3
0	2603	827.430647890425	4
0	2604	828.297455170258	3
0	2611	830.029883127378	2
0	2618	833.779422384357	1
0	2623	835.28680318297	0
0	2643	839.077544128264	1
0	2644	839.806113034959	0
0	2651	842.485875964803	1
0	2658	846.899631413043	0
0	2677	849.423505626351	1
0	2679	850.33171140128	2
0	2680	851.020693340337	1
0	2685	851.669347069458	0
0	2693	851.810259780189	1
0	2695	852.899283994899	0
0	2702	854.123834896849	1
0	2710	857.567535237441	0
0	2723	865.839963780605	1
0	2724	865.930231995817	0
0	2744	870.532579511888	1
0	2745	876.31399832415	0
0	2782	889.387039375824	1
0	2783	890.790556443522	0
0	2807	900.996955115745	1
0	2813	901.842125724186	2
0	2816	902.277824927835	1
0	2822	902.790769276732	0
0	2850	913.248957014289	1
0	2852	913.731812806749	2
0	2855	916.851697318899	1
0	2861	917.325505757263	0
0	2883	922.614496938422	1
0	2885	923.605490077007	2
0	2887	925.793124576906	3
0	2895	930.325236696639	4
0	2897	930.534435978082	5
0	2901	936.408374824436	6
0	2902	937.794382793181	5
0	2907	938.21628154505	4
0	2917	939.621687171396	5
0	2920	945.358489303195	4
0	2926	945.80967035419	5
0	2937	950.903266274559	6
0	2938	952.474193537822	5
0	2943	953.310065867326	4
0	2949	955.16858765174	3
0	2957	957.228872756359	2
0	2962	958.557047802801	1
0	2971	962.99143909556	2
0	2975	965.427013940638	3
0	2976	966.343976789263	2
0	2982	968.157764666538	1
0	2987	968.277293788257	0
0	2993	968.569388878992	1
0	2994	969.423726829374	0
0	3014	972.040966311573	1
0	3016	972.392213796706	2
0	3018	972.693182937934	3
0	3019	972.735711976066	2
0	3024	972.777546336136	1
0	3029	976.694540259522	0
0	3044	980.531267322317	1
0	3045	980.727790739265	0
0	3052	982.986502018828	1
0	3054	983.085243176361	2
0	3056	983.449572998221	3
0	3058	983.587496370456	4
0	3059	985.688297606461	3
0	3064	985.6978833752	2
0	3069	986.280850109618	1
0	3076	988.717928565062	2
0	3078	989.426446784121	1
0	3089	992.239343398928	0
0	3097	994.012365341517	1
0	3099	994.795774274774	2
0	3100	997.145130421838	1
0	3106	998.077771298089	0
0	3127	1001.927844221472	1
0	3128	1002.198582267045	0
0	3135	1002.912592220285	1
0	3137	1005.734310220056	0
0	3153	1011.497062670726	1
0	3155	1015.366323721772	2
0	3157	1018.859340575415	3
0	3158	1019.434975184562	2
0	3163	1019.824878890913	1
0	3170	1020.0257237058	2
0	3173	1021.424732441959	3
0	3175	1021.931872243194	2
0	3181	1022.591934463322	3
0	3183	1022.793262998662	4
0	3187	1024.275714247083	5
0	3189	1025.107389799638	4
0	3194	1025.370363945628	3
0	3200	1025.438491929282	4
0	3205	1029.193308739113	3
0	3211	1030.242409576972	4
0	3213	1031.788341358352	3
0	3219	1032.053796463475	4
0	3220	1033.240498385365	3
0	3226	1034.89025619604	2
0	3232	1035.649125068113	3
0	3234	1036.838208032513	4
0	3236	1037.419743111627	5
0	3238	1038.257641847522	6
0	3240	1038.780691941871	7
0	3242	1040.70430022154	6
0	3249	1041.130752015586	7
0	3251	1041.594643201066	6
0	3257	1041.951883969622	7
0	3258	1042.00042928949	6
0	3263	1045.617126703512	5
0	3267	1050.546177978802	6
0	3271	1052.513477771966	5
0	3277	1053.739695971633	4
0	3285	1057.206625576938	3
0	3295	1059.111657878643	2
0	3301	1059.717050383302	1
0	3306	1060.84417257111	0
0	3313	1061.590903780608	1
0	3320	1064.164699716995	2
0	3324	1066.17778062746	3
0	3327	1066.623695695427	2
0	3332	1066.916493962721	1
0	3340	1070.467163239327	2
0	3343	1071.259873327332	1
0	3348	1071.866831110184	0
0	3369	1078.497607709161	1
0	3370	1078.804489816938	0
0	3382	1081.794686092785	1
0	3384	1083.756897867102	2
0	3385	1084.099785521081	1
0	3391	1084.316877107484	2
0	3392	1086.707756707845	1
0	3401	1093.282058142146	0
0	3408	1095.099711689737	1
0	3409	1096.26896952296	0
0	3426	1100.0382958841	1
0	3428	1100.562240858231	2
0	3429	1107.269917897433	1
0	3435	1107.72816825733	2
0	3437	1109.544419627308	3
0	3438	1110.554045639731	2
0	3444	1111.263970223906	1
0	3451	1112.214223759729	0
0	3458	1112.652523023724	1
0	3459	1113.638610593712	0
0	3482	1123.816770764484	1
0	3483	1124.471282331752	0
0	3490	1126.345649969086	1
0	3492	1130.426371086087	2
0	3494	1131.529217637837	3
0	3497	1137.739997499725	2
0	3506	1138.976304993632	3
0	3507	1141.024302736792	2
0	3516	1144.196858669672	1
0	3521	1144.498251801902	0
0	3527	1146.543181598062	1
0	3528	1147.110208093578	0
0	3548	1151.680303320181	1
0	3551	1154.44513173031	0
0	3557	1154.714545567785	1
0	3558	1156.78493697618	0
0	3579	1161.954697397862	1
0	3581	1163.117010387459	2
0	3585	1166.216297039038	3
0	3586	1167.391799209162	2
0	3592	1168.135241619601	1
0	3597	1168.435354968425	0
0	3603	1168.436301393933	1
0	3606	1169.976868067569	0
0	3626	1172.709156465091	1
0	3628	1173.841436952266	0
0	3640	1177.759603140658	1
0	3644	1178.791310219267	2
0	3646	1178.879160062899	3
0	3647	1179.640550350833	2
0	3654	1181.732293755434	3
0	3657	1184.68095033409	2
0	3663	1187.381046996162	1
0	3668	1187.829385085337	0
0	3680	1192.071285360106	1
0	3684	1194.855303400989	0
0	3693	1200.883210355304	1
0	3695	1201.158070069393	2
0	3696	1202.285610950331	1
0	3703	1206.107530996961	2
0	3707	1210.690744601769	3
0	3708	1211.030932536539	2
0	3715	1212.469879346696	3
0	3720	1214.662946379096	4
0	3721	1217.161389655981	3
0	3727	1217.684097512633	4
0	3728	1217.81972723199	3
0	3738	1222.675080736594	2
0	3745	1223.811613969869	1
0	3751	1223.842152828918	2
0	3752	1224.526517639621	1
0	3759	1225.263245467274	2
0	3760	1226.184296339858	1
0	3766	1228.150562115596	2
0	3768	1228.592386466608	1
0	3774	1229.000167191995	0
0	3794	1233.4265263044	1
0	3795	1234.23898447745	0
0	3808	1239.234959766417	1
0	3809	1239.644861338913	0
0	3852	1256.567198030758	1
0	3855	1257.435578985602	0
0	3866	1262.037856532801	1
0	3869	1265.642318299515	0
0	3899	1272.835371021007	1
0	3902	1274.117738528368	0
0	3912	1275.937227057705	1
0	3917	1277.608795389647	0
0	3923	1278.765014891701	1
0	3925	1279.645354832075	0
0	3954	1289.012234614919	1
0	3962	1292.170957569123	0
0	3968	1292.173634981509	1
0	3970	1292.969158915651	0
0	3976	1293.534381758287	1
0	3977	1294.105231878437	0
0	4016	1301.179421693586	1
0	4021	1304.753694891497	0
0	4036	1308.863816461048	1
0	4040	1309.738301454942	2
0	4044	1310.949197882376	3
0	4046	1313.37571194884	4
0	4047	1314.348487127503	3
0	4052	1314.515993823561	2
0	4058	1315.195179308321	1
0	4063	1316.814593017404	0
0	4077	1324.059861060468	1
0	4078	1324.118260163376	0
0	4085	1326.233903437861	1
0	4088	1327.772528654843	0
0	4094	1329.493885132792	1
0	4096	1329.815790621685	2
0	4103	1331.799950900354	3
0	4106	1334.674341091711	4
0	4108	1335.938307721936	5
0	4110	1340.735852111444	6
0	4111	1341.946757517977	5
0	4117	1342.969236512466	6
0	4120	1344.414208651202	7
0	4122	1344.5841528127	8
0	4123	1346.515105330514	7
0	4129	1346.679851179694	6
0	4137	1350.411667625069	5
0	4143	1351.428114191911	4
0	4149	1357.973804977916	3
0	4154	1358.344068010315	2
0	4159	1359.402229760773	1
0	4165	1359.452842337369	2
0	4168	1361.901611231401	3
0	4172	1363.792484184348	2
0	4178	1364.433400776978	1
0	4183	1365.702416065433	0
0	4189	1366.516555831669	1
0	4191	1367.063096510474	0
0	4203	1368.937313901183	1
0	4204	1369.223706105783	0
0	4211	1371.243274038326	1
0	4212	1371.292250978187	0
0	4226	1375.434698474249	1
0	4227	1376.077578823257	0
0	4238	1377.078202327731	1
0	4243	1378.903570888577	2
0	4246	1380.890894156575	1
0	4251	1380.967935935655	0
0	4267	1382.808213600203	1
0	4273	1387.533504496922	2
0	4276	1390.274902906613	1
0	4285	1393.640468934789	2
0	4287	1393.793930577485	3
0	4288	1394.780015520596	2
0	4293	1395.460246431605	1
0	4301	1396.301073097272	0
0	4307	1397.245151590369	1
0	4308	1398.282854944923	0
0	4314	1398.758079467879	1
0	4316	1399.227985793457	0
0	4347	1409.009814297342	1
0	4352	1411.395941233639	0
0	4370	1417.246057679993	1
0	4371	1418.169124446971	0
0	4377	1418.806354831569	1
0	4378	1418.913928511331	0
0	4392	1426.640005223485	1
0	4393	1428.671694979097	0
0	4406	1429.450168101874	1
0	4408	1431.48243837598	0
0	4414	1431.618259258165	1
0	4415	1433.591084699795	0
0	4440	1450.229361336914	1
0	4442	1451.161588518148	2
0	4448	1453.647123646615	3
0	4449	1455.281000834357	2
0	4455	1455.738241517267	3
0	4457	1455.863560256089	4
0	4458	1456.922327331388	3
0	4464	1457.506355065925	2
0	4470	1457.545771578813	3
0	4471	1458.017286520026	2
0	4476	1458.312909930335	1
0	4486	1459.956109163515	2
0	4487	1460.000690177836	1
0	4493	1460.171954338255	2
0	4496	1461.812550797065	3
0	4498	1462.983128750764	4
0	4502	1465.965184818411	3
0	4509	1468.787412677946	2
0	4517	1470.859083459336	1
0	4525	1472.17182755834	0
0	4539	1472.776116748493	1
0	4543	1474.26930512653	0
0	4549	1474.859138085655	1
0	4551	1477.306887212395	2
0	4555	1479.914216525364	1
0	4561	1480.39752126491	2
0	4567	1486.198619537524	1
0	4572	1486.220584477626	0
0	4590	1490.662327363099	1
0	4592	1492.171458733988	2
0	4594	1492.471528383113	3
0	4596	1492.976131379632	4
0	4600	1497.665349125064	5
0	4601	1499.821546340737	4
0	4607	1500.96138172095	3
0	4612	1500.985400704244	2
0	4617	1502.045881135563	1
0	4624	1502.832867178246	0
0	4647	1509.575341635713	1
0	4653	1514.086835572016	2
0	4659	1518.677124852532	3
0	4662	1520.391377771828	2
0	4670	1520.886201240919	3
0	4673	1521.725050010662	4
0	4674	1521.74642086207	3
0	4679	1521.91752507198	2
0	4686	1525.256553544165	1
0	4693	1527.08676020444	2
0	4694	1528.179054812818	1
0	4699	1528.435352059515	0
0	4714	1530.725627456723	1
0	4725	1538.072696074816	2
0	4726	1538.356738183232	1
0	4731	1541.771956715585	0
0	4766	1553.029520490121	1
0	4772	1556.142744970876	0
0	4792	1560.426351158817	1
0	4795	1563.110215526596	0
0	4838	1573.553827069789	1
0	4842	1574.454285976188	2
0	4844	1574.466640429202	3
0	4846	1575.416081281029	4
0	4850	1582.202715903574	5
0	4851	1582.267747654889	4
0	4858	1583.145296709273	5
0	4863	1585.706186403948	6
0	4865	1588.140735183371	5
0	4874	1590.198103281908	6
0	4879	1596.473273131261	7
0	4881	1597.333525451079	8
0	4887	1604.580608215957	9
0	4889	1605.031695049783	10
0	4890	1606.476101653267	9
0	4898	1613.406329620227	8
0	4903	1613.756686345567	7
0	4911	1617.988457141333	8
0	4913	1618.12713249489	9
0	4914	1619.136253926226	8
0	4920	1620.438377652135	7
0	4928	1623.911685306302	6
0	4933	1624.018612862252	5
0	4938	1624.387183781508	4
0	4944	1624.591414730416	5
0	4948	1626.119003509546	6
0	4949	1626.153418282821	5
0	4955	1626.270711879532	6
0	4957	1626.956546146834	7
0	4962	1627.962608559021	6
0	4968	1631.051694784296	5
0	4976	1634.122000574502	4
0	4982	1635.203199577398	3
0	4987	1636.983479684947	2
0	4991	1637.763430461589	3
0	4997	1646.330408901513	2
0	5003	1646.906891040782	3
0	5004	1647.580548264991	2
0	5012	1648.20210673231	3
0	5014	1649.880045142146	4
0	5015	1653.037064197192	3
0	5022	1654.791245014356	4
0	5023	1655.954734847934	3
0	5030	1657.187563292347	4
0	5034	1658.769499103498	5
0	5035	1660.259655437866	4
0	5043	1661.550340835333	5
0	5045	1661.732961165396	6
0	5046	1663.147347973948	5
0	5054	1665.073092444403	4
0	5060	1665.517915277136	5
0	5062	1665.890002410413	6
0	5064	1665.923074676401	7
0	5066	1666.54892615585	8
0	5070	1667.069227938615	7
0	5079	1669.888415344517	6
0	5084	1669.970649066393	5
0	5089	1670.138690610083	4
0	5103	1678.223154084342	5
0	5106	1680.845913800726	4
0	5111	1681.737564671073	3
0	5115	1681.992030674572	4
0	5125	1687.923348456306	3
0	5132	1690.286454936734	2
0	5139	1692.723637171988	1
0	5149	1696.530807360305	0
0	5161	1698.596122540367	1
0	5162	1700.274066228699	0
0	5168	1700.339710785831	1
0	5169	1700.765556251466	0
0	5193	1705.075977376861	1
0	5194	1706.244916476757	0
0	5206	1710.712707004777	1
0	5207	1711.025216827572	0
0	5232	1717.816497393623	1
0	5233	1717.96878611806	0
0	5244	1720.126182716641	1
0	5247	1721.069890138692	0
0	5269	1730.397291879365	1
0	5270	1731.426808128704	0
0	5277	1733.36533838888	1
0	5284	1734.199048293483	2
0	5286	1734.7366689513	1
0	5291	1735.596358821836	0
0	5303	1737.31002378316	1
0	5309	1738.969069977599	2
0	5310	1741.765574870209	1
0	5317	1745.254086445186	2
0	5318	1745.259679637589	1
0	5324	1746.188857657883	2
0	5326	1748.869934472403	1
0	5332	1749.109001169126	0
0	5339	1749.71925173346	1
0	5342	1751.199728462883	0
0	5355	1755.567654070763	1
0	5356	1756.762421391972	0
0	5368	1760.456583512895	1
0	5370	1760.982864082355	2
0	5374	1764.978818577491	3
0	5375	1766.800496550221	2
0	5381	1767.251951196079	1
0	5386	1767.264342238231	0
0	5394	1768.281379391565	1
0	5395	1768.454647103002	0
0	5435	1780.305678596253	1
0	5437	1780.368979965873	2
0	5438	1780.471643486183	1
0	5445	1780.93519322648	0
0	5459	1784.828375380851	1
0	5460	1786.055478104025	0
0	5470	1789.739302134812	1
0	5472	1790.470009220986	2
0	5475	1791.871862349353	1
0	5480	1792.73242745828	0
0	5487	1794.652089891722	1
0	5489	1796.156627091811	0
0	5501	1798.962705524038	1
0	5510	1804.217789475573	2
0	5511	1806.513463731309	1
0	5518	1808.591217506445	2
0	5519	1810.542962628812	1
0	5525	1810.867888176941	2
0	5527	1811.580336419937	3
0	5530	1813.939208442514	4
0	5531	1814.515685493054	3
0	5537	1815.809515629874	2
0	5543	1815.830586435775	3
0	5546	1817.701493585276	4
0	5551	1818.256980844889	3
0	5559	1821.955113233343	2
0	5565	1823.887823931557	1
0	5576	1829.164992722186	0
0	5589	1830.084015210629	1
0	5590	1831.21134124665	0
0	5609	1833.501341141605	1
0	5611	1833.72046305109	2
0	5613	1834.225164509013	3
0	5614	1835.4932434506	2
0	5620	1835.525930139587	3
0	5623	1837.452020573578	4
0	5626	1838.805371536766	5
0	5629	1842.049511296898	4
0	5635	1843.044436398766	3
0	5640	1845.986512010378	2
0	5647	1847.526885640209	3
0	5649	1847.931985385689	4
0	5651	1848.946583065473	3
0	5656	1849.022565847248	2
0	5669	1850.352026473798	3
0	5672	1851.126670842416	4
0	5674	1853.748818942429	5
0	5676	1857.980496694572	6
0	5677	1859.183879551567	5
0	5684	1861.830467352251	4
0	5689	1862.502185816306	3
0	5696	1863.355184913715	4
0	5697	1865.496386759598	3
0	5705	1868.873906612446	4
0	5711	1874.727462636055	5
0	5713	1874.915248678963	6
0	5717	1878.646190914904	7
0	5718	1880.567748033223	6
0	5724	1883.769710908129	7
0	5728	1884.442522567204	8
0	5729	1884.878728591222	7
0	5736	1885.708528441735	8
0	5740	1886.309680351239	7
0	5746	1888.232375723817	8
0	5748	1888.277818657081	9
0	5753	1890.443807522126	10
0	5754	1890.57452583828	9
0	5761	1891.163579999631	10
0	5764	1892.79720411898	9
0	5770	1892.929264607054	10
0	5772	1896.549958838946	9
0	5779	1897.261544326986	10
0	5780	1899.883568221412	9
0	5785	1900.932278537751	8
0	5790	1900.992801764738	7
0	5796	1902.716585119447	6
0	5801	1903.493036450794	5
0	5806	1903.720192323673	4
0	5814	1905.510707324933	5
0	5820	1907.551602452659	6
0	5822	1907.596734700778	7
0	5824	1908.456347315883	6
0	5831	1909.777369953694	7
0	5834	1910.133136019024	8
0	5841	1914.079421910832	7
0	5847	1914.730236011687	8
0	5848	1915.116037581748	7
0	5854	1915.137450876198	8
0	5856	1915.371790901157	9
0	5864	1921.454262208016	10
0	5866	1922.901705145392	11
0	5867	1923.7718814887	10
0	5873	1925.14888721823	9
0	5879	1926.487340983739	8
0	5886	1929.425676616749	7
0	5892	1931.600932850284	6
0	5898	1932.932957813531	5
0	5903	1933.799703028183	4
0	5908	1933.926838072415	3
0	5913	1933.966959627634	2
0	5921	1935.856788620977	3
0	5926	1936.605680885461	4
0	5928	1937.836803497663	5
0	5931	1941.767619862442	4
0	5936	1942.929015646121	3
0	5944	1947.866049615108	4
0	5947	1948.177138195255	3
0	5952	1948.699334675647	2
0	5962	1951.22376058456	1
0	5969	1951.940435268719	2
0	5971	1953.542856025967	1
0	5979	1956.381232844995	0
0	5996	1958.773871871952	1
0	6001	1965.176948963727	0
0	6007	1966.135742509244	1
0	6008	1966.774985507111	0
0	6020	1967.877322414923	1
0	6021	1968.598171994234	0
0	6053	1976.290112757031	1
0	6055	1976.857474943679	2
0	6057	1977.141449472729	3
0	6058	1979.11640034749	2
0	6064	1979.538502682399	3
0	6065	1980.151157886375	2
0	6073	1982.173635401441	1
0	6079	1983.317700493265	0
0	6114	1993.952672699843	1
0	6115	1995.021134115477	0
0	6129	2000.788415711209	1
0	6131	2001.871996681809	2
0	6132	2002.103799524428	1
0	6140	2004.857717274609	0
0	6146	2006.481291699153	1
0	6149	2007.059079050871	0
0	6164	2009.697651526043	1
0	6166	2011.510898995606	2
0	6168	2011.64336116326	3
0	6171	2013.848882235689	2
0	6179	2015.124455109036	3
0	6181	2015.772323330269	4
0	6183	2016.106570257836	5
0	6185	2016.795651139379	6
0	6188	2019.387330639436	5
0	6197	2022.90207059673	4
0	6203	2024.069610818768	3
0	6210	2026.455433340431	4
0	6212	2026.488007552468	5
0	6213	2026.701011232524	4
0	6222	2027.828927899353	5
0	6224	2030.199713179579	4
0	6230	2030.786493826741	3
0	6237	2032.824978720827	4
0	6238	2033.030001775854	3
0	6243	2034.833040176104	2
0	6248	2034.948287207457	1
0	6253	2034.99821278423	0
0	6287	2043.527527811801	1
0	6288	2045.141871611345	0
0	6295	2046.895317679611	1
0	6300	2050.127625477675	2
0	6302	2051.795289020066	1
0	6312	2053.944039105613	0
0	6323	2054.850681764273	1
0	6324	2055.056747617105	0
0	6341	2059.339508081682	1
0	6343	2060.927760319528	2
0	6344	2063.747247558898	1
0	6351	2064.163891752227	2
0	6354	2068.395695312832	3
0	6355	2070.442309201707	2
0	6361	2071.497592917359	3
0	6362	2072.409789312836	2
0	6369	2073.523567776903	1
0	6375	2073.659961792887	2
0	6377	2073.826376511429	3
0	6380	2077.121157491503	2
0	6386	2079.759266712859	1
0	6397	2086.653871143256	0
0	6409	2088.762776260855	1
0	6411	2089.494460812659	2
0	6419	2091.826844640035	3
0	6420	2092.070208277408	2
0	6426	2093.477230538067	1
0	6432	2095.076365802259	2
0	6434	2095.081062773895	3
0	6435	2095.160117641932	2
0	6442	2098.045097374387	1
0	6450	2099.410725800886	2
0	6452	2100.072330522083	3
0	6456	2102.749300808006	2
0	6462	2104.394758706132	1
0	6471	2109.36327131656	2
0	6472	2109.498523511128	1
0	6477	2110.247848914931	0
0	6486	2112.712546141045	1
0	6487	2113.375945157024	0
0	6493	2113.395592652996	1
0	6495	2113.678403941648	2
0	6498	2114.265377840802	3
0	6500	2114.280969547092	4
0	6502	2114.653569116914	5
0	6503	2116.347764489649	4
0	6510	2118.245814493807	5
0	6511	2120.709616266729	4
0	6517	2121.984353813373	3
0	6523	2123.968198965338	4
0	6524	2125.470248909847	3
0	6530	2126.152135096376	4
0	6532	2127.222717699167	5
0	6533	2129.484386180429	4
0	6540	2130.307137278648	3
0	6546	2130.392746724735	4
0	6548	2130.527816718273	3
0	6554	2131.039899183045	4
0	6555	2131.945493959742	3
0	6560	2133.051586672723	2
0	6566	2133.222231877915	3
0	6572	2139.758151973996	2
0	6583	2143.755766426235	3
0	6587	2144.778300868668	4
0	6588	2145.948128249398	3
0	6595	2147.986315564992	2
0	6603	2149.406004007557	1
0	6611	2151.29344005111	0
0	6639	2159.2158165933	1
0	6642	2160.851619007379	2
0	6645	2165.392326210158	3
0	6646	2167.036113284566	2
0	6652	2168.634438114618	1
0	6658	2169.216700212026	0
0	6664	2169.368644031245	1
0	6665	2169.830471306663	0
0	6671	2170.257672348325	1
0	6676	2171.772066856705	0
0	6687	2173.184113480686	1
0	6689	2173.650308408814	2
0	6691	2174.062314136823	1
0	6697	2175.702239861758	0
0	6704	2176.923463676287	1
0	6705	2177.965634959656	0
0	6713	2179.05761424779	1
0	6716	2183.485496558735	0
0	6727	2186.187363375499	1
0	6730	2186.549709687913	2
0	6732	2187.314740175548	1
0	6737	2187.853793681022	0
0	6743	2188.971654209776	1
0	6744	2189.04504051802	0
0	6756	2191.243597866228	1
0	6757	2191.28159204437	0
0	6776	2194.006739592943	1
0	6779	2195.046714966626	2
0	6784	2196.683054496137	1
0	6795	2200.523506558484	0
0	6827	2205.284871751153	1
0	6834	2210.614392167406	0
0	6866	2218.327672566315	1
0	6867	2219.521447877136	0
0	6874	2222.467579250015	1
0	6876	2222.817850538397	2
0	6881	2224.282602761373	3
0	6882	2224.784740859524	2
0	6888	2226.829540454637	1
0	6894	2229.584656019928	0
0	6900	2229.608109558138	1
0	6905	2234.449306216886	0
0	6911	2234.563905005671	1
0	6914	2235.321798361488	2
0	6917	2236.113283251669	1
0	6922	2236.217883005347	0
0	6958	2242.802507238904	1
0	6962	2244.717872535526	0
0	6974	2245.146916917714	1
0	6975	2246.044349700495	0
0	6981	2246.196914675708	1
0	6983	2248.67510800591	2
0	6987	2253.050250230095	1
0	6994	2253.821462073458	0
0	7002	2255.081893820641	1
0	7003	2255.561085517782	0
0	7018	2259.041017410686	1
0	7020	2259.526334987188	2
0	7021	2261.130111888628	1
0	7030	2264.01845324513	0
0	7047	2267.149007304711	1
0	7048	2268.230012734166	0
0	7055	2269.093728521463	1
0	7056	2269.743517270268	0
0	7063	2271.10866144048	1
0	7064	2272.267628367304	0
0	7089	2281.519769114685	1
0	7090	2281.879044280132	0
0	7115	2291.628621316228	1
0	7117	2294.611233510294	2
0	7118	2295.142618924692	1
0	7123	2295.619211223245	0
0	7133	2296.818474827941	1
0	7135	2298.124104864888	2
0	7136	2298.190433748056	1
0	7141	2299.111089892723	0
0	7149	2301.561387329332	1
0	7151	2302.45963870921	2
0	7152	2302.484068093439	1
0	7157	2302.523383902778	0
0	7163	2302.611576824115	1
0	7165	2302.748528476868	2
0	7172	2305.145227801052	1
0	7177	2305.795850877416	0
0	7206	2314.524983399413	1
0	7210	2315.257463374083	2
0	7211	2315.619295254928	1
0	7216	2315.896710089097	0
0	7222	2316.465760172842	1
0	7226	2317.773622587073	0
0	7247	2321.680777743211	1
0	7248	2322.066065081466	0
0	7254	2322.159455891933	1
0	7255	2322.279884336177	0
0	7274	2328.958529157101	1
0	7276	2329.325525823825	2
0	7277	2329.823496811643	1
0	7284	2330.699954019707	2
0	7285	2332.297897799686	1
0	7291	2332.606342141256	0
0	7297	2333.843684813289	1
0	7299	2334.645042815706	2
0	7306	2340.938038130021	3
0	7308	2341.369637550147	4
0	7310	2342.409752434473	5
0	7313	2343.328616092356	4
0	7318	2343.764131484539	3
0	7325	2344.49954728395	4
0	7328	2345.46899431534	5
0	7329	2346.904040683578	4
0	7334	2347.899861150924	3
0	7340	2348.42673144824	4
0	7342	2348.537674659534	5
0	7344	2349.548573170401	4
0	7350	2351.118860975729	3
0	7356	2351.278450293823	4
0	7361	2352.640092426219	5
0	7362	2352.877925558014	4
0	7369	2355.732725825154	3
0	7375	2355.847666246369	4
0	7377	2357.202251542924	3
0	7382	2358.12720864986	2
0	7388	2360.160637123304	1
0	7395	2364.235825512402	0
0	7404	2365.490606692903	1
0	7405	2365.695451335417	0
0	7417	2366.199250524224	1
0	7422	2368.201224720259	0
0	7429	2369.17162063262	1
0	7431	2372.14953311298	0
0	7463	2374.833134682525	1
0	7466	2375.86185778672	0
0	7485	2377.241851200419	1
0	7486	2377.85474305337	0
0	7520	2389.211818287472	1
0	7521	2389.468116290403	0
0	7539	2393.430388407567	1
0	7540	2394.686484813565	0
0	7553	2398.112282506316	1
0	7555	2399.103034825517	0
0	7574	2409.577019784986	1
0	7577	2413.428615161189	0
0	7587	2419.814707891325	1
0	7594	2421.542485697106	0
0	7605	2424.987275853928	1
0	7606	2425.295215972779	0
0	7615	2425.916655057282	1
0	7621	2428.246433279308	0
0	7640	2431.534118979875	1
0	7644	2432.473004143783	2
0	7645	2432.942880897995	1
0	7651	2433.464517036525	2
0	7652	2433.706394056552	1
0	7661	2434.689510127528	2
0	7663	2435.105355264519	3
0	7665	2445.817548091128	2
0	7672	2449.911481042296	3
0	7674	2451.293545463201	2
0	7680	2451.423351542502	1
0	7686	2451.728351349002	2
0	7687	2452.807171714267	1
0	7693	2453.822519773576	2
0	7695	2454.045910247825	3
0	7697	2456.52816267123	2
0	7704	2456.806354339381	3
0	7710	2458.314493610825	4
0	7711	2460.429592347867	3
0	7717	2461.403578555597	4
0	7718	2461.475023782621	3
0	7723	2461.491775963311	2
0	7729	2461.632041374435	3
0	7732	2464.583879580949	2
0	7738	2465.28566009111	1
0	7748	2468.552561234409	2
0	7749	2469.195917318294	1
0	7754	2471.177854339433	0
0	7767	2473.276733316841	1
0	7769	2474.499045928873	0
0	7783	2478.570483587015	1
0	7787	2480.064129755924	2
0	7790	2482.302082818267	1
0	7795	2482.905802197355	0
0	7801	2483.031614382007	1
0	7803	2483.373522873798	0
0	7830	2488.285909689856	1
0	7831	2490.617653545517	0
0	7842	2490.90348717822	1
0	7843	2491.849729341257	0
0	7889	2506.32267506546	1
0	7893	2508.020252061126	2
0	7894	2508.165188436912	1
0	7902	2508.624481441399	2
0	7904	2509.34310199408	1
0	7911	2512.213584299557	0
0	7918	2514.387151251497	1
0	7921	2514.77091799621	0
0	7938	2519.461584770618	1
0	7943	2523.940969003732	0
0	7971	2537.186894244372	1
0	7974	2543.665859232523	0
0	7980	2544.357419628143	1
0	7981	2544.702491982039	0
0	7990	2545.960475361944	1
0	7994	2546.639559763137	2
0	7996	2546.707035348918	3
0	7998	2547.785599872861	4
0	8003	2549.876586715787	3
0	8008	2549.934205040366	2
0	8015	2550.500083712158	3
0	8017	2550.762439226154	4
0	8018	2553.871746194312	3
0	8023	2554.722886414662	2
0	8031	2555.839385078484	1
0	8036	2556.112560160812	0
0	8040	2557.192190784112	1
0	8045	2561.079224414237	0
0	8076	2579.580929306623	1
0	8078	2580.326279882194	2
0	8082	2581.307297927753	1
0	8087	2581.689963912762	0
0	8091	2583.443942922855	1
0	8095	2584.205424865598	2
0	8097	2584.533570547712	3
0	8100	2587.605378363526	2
0	8108	2589.21076760578	1
0	8115	2590.422392051064	2
0	8116	2591.638855593995	1
0	8120	2592.418140770454	2
0	8127	2594.523601634655	3
0	8130	2595.594314470695	2
0	8140	2598.907313236549	3
0	8141	2599.86593243938	2
0	8146	2600.678753738257	1
0	8154	2601.672798449892	0
0	8173	2604.203631012143	1
0	8174	2605.250830331914	0
0	8183	2606.771771889581	1
0	8184	2606.892060464396	0
0	8212	2612.95219952311	1
0	8215	2617.279634412218	0
0	8258	2636.974333409905	1
0	8260	2637.307276770211	2
0	8265	2638.678284936661	3
0	8266	2642.154742680582	2
0	8273	2643.399042990359	3
0	8277	2644.09340450627	4
0	8278	2644.115764919271	3
0	8284	2645.137549653348	4
0	8286	2648.161639898171	5
0	8289	2649.429697472344	6
0	8291	2649.719688114763	7
0	8292	2649.795332227042	6
0	8297	2650.149434640352	5
0	8302	2650.555258912375	4
0	8310	2650.976443829298	5
0	8311	2651.361787891569	4
0	8324	2656.395375417983	3
0	8329	2657.279920604678	2
0	8335	2657.559655293507	3
0	8337	2658.169324350204	2
0	8345	2659.927695864325	3
0	8350	2666.251447445336	2
0	8355	2668.005359302034	1
0	8361	2668.212885802307	2
0	8365	2672.827913270678	1
0	8374	2674.066668061269	2
0	8376	2675.389070811567	1
0	8381	2675.893452985598	0
0	8387	2675.964257311888	1
0	8389	2677.040583329515	0
0	8395	2677.829681109774	1
0	8396	2677.950835573007	0
0	8422	2682.859373020661	1
0	8424	2684.706886986227	2
0	8425	2685.313458155534	1
0	8433	2689.787797101414	0
0	8439	2689.983817933794	1
0	8441	2690.493983893212	2
0	8444	2694.428552800118	1
0	8450	2695.441823644423	0
0	8471	2698.261311551755	1
0	8473	2699.94754490201	0
0	8479	2701.423375519724	1
0	8482	2702.730281043669	0
0	8493	2703.58326977074	1
0	8494	2704.150439375162	0
0	8542	2721.034960965253	1
0	8544	2721.40143005027	2
0	8546	2722.075233875863	3
0	8548	2723.245583561479	4
0	8553	2726.191017014173	3
0	8559	2726.583203477577	4
0	8561	2727.414241609333	3
0	8567	2727.515395735627	4
0	8569	2728.061959360551	5
0	8571	2728.117790067453	6
0	8574	2730.252851694007	7
0	8577	2731.147017817086	6
0	8583	2735.578031079982	5
0	8588	2737.074394809412	4
0	8595	2738.108206549228	5
0	8597	2738.438311778348	4
0	8603	2741.211277341942	3
0	8611	2743.38574863773	2
0	8617	2743.832699716741	1
0	8623	2744.2791974097	0
0	8634	2744.483949320641	1
0	8636	2750.045541027968	0
0	8652	2757.832439644352	1
0	8654	2758.599089853065	2
0	8655	2759.066159261168	1
0	8663	2760.372805478148	0
0	8672	2763.410464145411	1
0	8675	2764.047158624072	0
0	8723	2776.259155227133	1
0	8727	2780.038617559553	0
0	8739	2781.995152266713	1
0	8741	2782.288936542776	2
0	8746	2785.372361318919	3
0	8747	2785.431284100067	2
0	8753	2786.086956093868	3
0	8754	2786.468435387194	2
0	8759	2786.55349716692	1
0	8772	2790.595338103066	2
0	8776	2791.781405941228	3
0	8778	2794.806914443911	4
0	8782	2798.725564989552	5
0	8783	2800.960560684135	4
0	8793	2805.720802809279	3
0	8803	2808.757019897228	2
0	8808	2809.340438702793	1
0	8815	2812.079072951181	0
0	8821	2813.445105059864	1
0	8823	2814.6765497269	0
0	8834	2815.655161695809	1
0	8835	2817.424078561253	0
0	8848	2820.125940027173	1
0	8853	2827.476623593028	0
0	8859	2828.303521372808	1
0	8862	2828.858425263331	0
0	8872	2830.730500967191	1
0	8873	2831.635840734647	0
0	8885	2835.689415578616	1
0	8890	2837.101347543171	0
0	8906	2846.856579370807	1
0	8908	2849.107673826546	2
0	8909	2849.183805271424	1
0	8917	2851.246667997863	2
0	8918	2851.470786327512	1
0	8923	2851.84741600825	0
0	8929	2852.418281088981	1
0	8931	2852.566806272373	2
0	8932	2852.681820630392	1
0	8939	2853.38300924825	2
0	8943	2854.356951123117	1
0	8949	2854.936254455895	2
0	8950	2855.070748653868	1
0	8955	2856.014048246308	0
0	8979	2863.686298711771	1
0	8983	2867.072675349742	2
0	8984	2870.309957682594	1
0	8989	2870.755391878448	0
0	8995	2871.040279174741	1
0	8998	2873.962939841361	2
0	9001	2877.948798096177	3
0	9002	2878.38463259511	2
0	9010	2879.270564081847	3
0	9013	2880.405077585087	4
0	9015	2883.098597975204	5
0	9016	2883.776694407524	4
0	9022	2885.153662426386	3
0	9030	2886.364085858209	2
0	9035	2886.776778328825	1
0	9041	2888.183079705919	2
0	9046	2891.918100252664	1
0	9053	2893.495238881264	0
0	9069	2897.211920986358	1
0	9070	2897.323386743305	0
0	9076	2897.988000676488	1
0	9080	2901.201603983403	2
0	9081	2901.965478562504	1
0	9086	2902.024628979823	0
0	9096	2902.921993881924	1
0	9099	2903.902753459079	0
0	9107	2906.537752742789	1
0	9108	2906.570280878966	0
0	9114	2906.770694479007	1
0	9115	2907.358324481836	0
0	9145	2913.318881062988	1
0	9146	2917.18250706856	0
0	9154	2920.948235641938	1
0	9157	2922.52949133531	0
0	9191	2933.801886440774	1
0	9192	2934.549632438336	0
0	9206	2936.696539919159	1
0	9210	2940.485858314618	0
0	9232	2949.989797951978	1
0	9233	2950.780283033839	0
0	9240	2952.845662774516	1
0	9241	2953.028325510488	0
0	9247	2955.885586653909	1
0	9249	2958.576546767291	0
0	9282	2966.418482583747	1
0	9284	2967.479418889148	2
0	9286	2968.594564334144	3
0	9289	2971.201305756937	2
0	9302	2977.090773534496	3
0	9303	2978.750119171127	2
0	9310	2979.640581928042	1
0	9316	2982.443616716525	0
0	9340	2987.568127982697	1
0	9343	2992.993601283093	2
0	9344	2994.296842743345	1
0	9349	2994.69391704108	0
0	9355	2995.426935540405	1
0	9357	2995.534051904131	2
0	9359	2995.985641162998	3
0	9364	2997.91852925792	2
0	9369	2998.28550362112	1
0	9381	3002.828705093927	2
0	9384	3003.626586931443	3
0	9385	3004.403025931229	2
0	9390	3005.046009819135	1
0	9397	3006.144995449639	2
0	9399	3006.809017641943	3
0	9404	3008.557178347316	4
0	9405	3010.445969591992	3
0	9410	3010.689413186659	2
0	9415	3011.570566362682	1
0	9420	3011.69780467888	0
0	9455	3018.422910167821	1
0	9457	3018.500937898402	2
0	9459	3018.66883364806	3
0	9461	3018.941812637923	4
0	9462	3021.705071933	3
0	9467	3021.857384791575	2
0	9473	3022.300027075318	3
0	9475	3022.864215965252	2
0	9480	3022.913421347764	1
0	9488	3023.952145849988	2
0	9491	3025.522290208446	3
0	9492	3026.599015009926	2
0	9499	3027.412082588886	1
0	9512	3030.90252433848	0
0	9526	3034.492341179609	1
0	9529	3037.946260218047	2
0	9532	3038.273134497568	3
0	9533	3039.471095445925	2
0	9538	3040.009672762396	1
0	9544	3040.131081070236	2
0	9547	3040.294103222918	3
0	9549	3041.710159568645	4
0	9550	3041.712591233169	3
0	9558	3043.538097105982	4
0	9559	3043.605228538871	3
0	9565	3044.550064624047	2
0	9570	3044.695338375563	1
0	9576	3047.149665568006	0
0	9593	3051.531447971552	1
0	9596	3051.726520062622	2
0	9597	3052.091210981373	1
0	9604	3053.939305021788	0
0	9621	3056.216080221473	1
0	9625	3057.456712489444	2
0	9626	3057.73019216373	1
0	9631	3057.798694616317	0
0	9641	3059.684062280812	1
0	9649	3071.247831732005	0
0	9656	3074.017457887984	1
0	9657	3075.058844548408	0
0	9663	3075.191895282979	1
0	9666	3076.524702671489	0
0	9672	3076.621214991476	1
0	9673	3077.020853358219	0
0	9683	3078.580751237403	1
0	9684	3078.832304541551	0
0	9690	3079.236369763316	1
0	9691	3079.714403317054	0
0	9707	3084.100049568244	1
0	9710	3084.421411056192	0
0	9736	3095.682702714163	1
0	9739	3097.312234810202	0
0	9775	3104.661885413229	1
0	9776	3105.351667606831	0
0	9791	3110.228145583644	1
0	9794	3112.559305753406	0
0	9802	3114.861185410026	1
0	9804	3114.979668553919	2
0	9806	3115.48531618622	3
0	9808	3118.663904859082	2
0	9816	3121.050158081988	3
0	9817	3121.146506266145	2
0	9822	3121.177573935686	1
0	9828	3121.464819485477	2
0	9831	3123.37056213942	1
0	9837	3124.799981176715	2
0	9839	3125.287058192984	3
0	9843	3128.210627505436	4
0	9845	3128.381433671878	5
0	9846	3128.850783531965	4
0	9851	3129.210133624057	3
0	9857	3129.732936763685	2
0	9864	3130.36738261133	3
0	9865	3130.865222430459	2
0	9871	3131.631022915045	3
0	9877	3133.926935356732	2
0	9884	3140.098900134692	3
0	9885	3140.423355711379	2
0	9890	3140.97254821938	1
0	9895	3141.32748004078	0
0	9911	3142.321551198085	1
0	9914	3143.299486507299	0
0	9921	3143.940345030693	1
0	9922	3145.182519395418	0
0	9940	3148.202408293775	1
0	9944	3148.794968736465	0
0	9969	3155.918047392646	1
0	9970	3157.068507771002	0
0	9980	3160.130380314591	1
0	9984	3160.633589144959	2
0	9987	3161.676976480465	1
0	9993	3162.140178127919	2
0	9995	3168.065663936894	1
0	10000	3168.158415564784	0
0	10018	3178.508704733095	1
0	10020	3178.939197638177	2
0	10021	3179.330775306546	1
0	10026	3180.028103523134	0
0	10071	3196.155180460419	1
0	10072	3196.238218941621	0
0	10078	3196.378630826611	1
0	10082	3197.476142962992	0
0	10091	3200.974814110688	1
0	10092	3201.684248140501	0
0	10100	3204.812862507071	1
0	10102	3205.30290751676	0
0	10123	3212.249200650523	1
0	10125	3212.408266549332	2
0	10126	3214.297706363639	1
0	10132	3218.404237059736	0
0	10141	3219.36883419223	1
0	10143	3219.853509096422	2
0	10144	3220.775551786924	1
0	10153	3224.737881044598	2
0	10155	3225.995187633083	3
0	10156	3226.634737454862	2
0	10163	3232.312964605819	3
0	10165	3233.095101497681	4
0	10169	3235.324828205429	5
0	10171	3237.045748145234	6
0	10172	3237.507710869149	5
0	10177	3238.815831617312	4
0	10186	3240.901100777531	3
0	10192	3241.202159344895	4
0	10195	3241.876288461663	5
0	10197	3242.401603285828	6
0	10198	3242.930243395843	5
0	10205	3243.844211397224	6
0	10208	3245.313852416887	5
0	10214	3249.936354446868	4
0	10220	3250.683369221901	3
0	10226	3251.213675651479	4
0	10227	3251.309449754631	3
0	10233	3251.511000795941	4
0	10236	3255.219348406175	3
0	10241	3255.612604110842	2
0	10247	3256.136014698419	1
0	10255	3256.687976799599	2
0	10256	3257.670734436117	1
0	10262	3258.477467562115	2
0	10265	3259.484560865176	1
0	10273	3265.716734099337	2
0	10277	3266.334012424498	3
0	10278	3267.373394571741	2
0	10287	3268.734381969268	1
0	10294	3270.473298833295	2
0	10296	3271.674653591273	1
0	10303	3273.286146348341	0
0	10326	3282.166270699441	1
0	10327	3282.813134670918	0
0	10335	3282.908193320978	1
0	10336	3283.797844246157	0
0	10342	3284.580640837958	1
0	10347	3289.06871949675	2
0	10350	3289.598818058396	3
0	10352	3291.64538219337	2
0	10359	3293.327228086404	3
0	10361	3293.769123281131	4
0	10362	3295.689714571768	3
0	10368	3296.302325648897	4
0	10369	3297.917724803891	3
0	10375	3300.296686451818	4
0	10376	3301.107247829998	3
0	10381	3302.176660738058	2
0	10386	3302.234609259503	1
0	10391	3302.240145019981	0
0	10413	3306.084837597015	1
0	10415	3307.430094639826	2
0	10418	3308.013958872497	3
0	10421	3308.823712025215	2
0	10427	3309.119870268347	3
0	10428	3311.224379110031	2
0	10436	3312.660589845975	1
0	10441	3312.953912837151	0
0	10459	3315.243385681841	1
0	10460	3315.613306595621	0
0	10489	3324.262149224258	1
0	10493	3327.655664401107	0
0	10504	3329.806261727665	1
0	10509	3334.546365434784	2
0	10511	3334.88301323871	3
0	10512	3335.881640572441	2
0	10518	3336.209466490805	3
0	10520	3336.249801390025	4
0	10522	3336.72123101699	5
0	10524	3337.843170253712	6
0	10526	3339.384801444124	5
0	10534	3343.858048112705	4
0	10543	3344.92682740691	5
0	10545	3346.640675620113	4
0	10550	3346.88746434744	3
0	10555	3347.737057653955	2
0	10561	3348.5875106011	3
0	10565	3349.677818415191	4
0	10566	3350.191881930521	3
0	10572	3353.061947836791	2
0	10581	3354.613997525308	3
0	10582	3355.399438769289	2
0	10590	3356.810630601571	3
0	10596	3358.126485117347	4
0	10597	3359.826767376415	3
0	10602	3360.41489952819	2
0	10611	3363.402537910576	1
0	10617	3363.915929743406	2
0	10619	3364.664120092438	1
0	10627	3365.784147648953	2
0	10629	3367.374821391585	1
0	10637	3368.326591218474	0
0	10654	3372.17228064115	1
0	10658	3373.979071413088	2
0	10660	3378.192909823737	3
0	10667	3382.068085685837	2
0	10676	3384.570249628202	1
0	10685	3386.170365546039	2
0	10686	3387.485287788642	1
0	10692	3387.910837714734	0
0	10699	3387.949918579332	1
0	10700	3388.164532203829	0
0	10712	3392.42912352351	1
0	10713	3393.702760574719	0
0	10724	3394.64076019548	1
0	10729	3396.713266956816	0
0	10766	3408.523713399889	1
0	10769	3409.083264352409	0
0	10778	3409.66435225478	1
0	10781	3411.043761459334	0
0	10799	3415.812273135055	1
0	10801	3417.831038734097	2
0	10802	3418.090307101025	1
0	10810	3418.420097018214	2
0	10812	3418.974623855909	3
0	10814	3419.217619988047	4
0	10816	3419.425413673615	5
0	10818	3419.794466811213	6
0	10819	3420.825517120783	5
0	10827	3422.888661990376	6
0	10828	3423.827472857243	5
0	10834	3424.455852004714	4
0	10840	3425.199062868374	5
0	10841	3425.376224145215	4
0	10847	3426.750019391219	3
0	10852	3426.983043112724	2
0	10859	3427.614940398113	3
0	10861	3430.394707620811	2
0	10867	3430.658285883992	3
0	10870	3433.212783148387	2
0	10884	3437.311597947638	1
0	10890	3437.33993280841	0
0	10896	3439.834199404118	1
0	10899	3440.676754994988	2
0	10902	3441.711102401913	3
0	10904	3445.123677424653	2
0	10909	3445.46276076638	1
0	10915	3447.496534671958	0
0	10952	3461.792397845225	1
0	10953	3462.656154206379	0
0	10967	3466.704168318765	1
0	10971	3469.094479305328	0
0	10977	3469.226785361355	1
0	10978	3470.076967579566	0
0	10987	3471.384722691144	1
0	10989	3473.590541019604	2
0	10994	3474.689517612273	3
0	10997	3475.242708169026	2
0	11002	3475.52942942465	1
0	11011	3476.885211870036	0
0	11021	3478.640069564824	1
0	11027	3483.243227404923	2
0	11028	3483.423551985018	1
0	11036	3486.159508785346	2
0	11037	3487.211465219773	1
0	11042	3487.414072388635	0
0	11051	3487.933658779457	1
0	11054	3489.472934200987	0
0	11067	3495.203648276077	1
0	11069	3495.669321369612	2
0	11071	3496.855015592706	1
0	11079	3499.688828362995	0
0	11093	3503.684537668919	1
0	11096	3504.989944020013	2
0	11099	3506.231058079873	1
0	11104	3507.705799293635	0
0	11133	3518.154535808153	1
0	11134	3518.162482856004	0
0	11155	3533.252459736599	1
0	11161	3537.609661125921	2
0	11162	3539.838936145284	1
0	11167	3540.268893072318	0
0	11178	3541.76860211417	1
0	11180	3543.238822836332	2
0	11181	3543.75067478034	1
0	11187	3544.243404770756	0
0	11200	3550.37356706977	1
0	11202	3550.714314889404	2
0	11204	3551.701317560087	3
0	11206	3553.512577479551	4
0	11207	3554.445938549642	3
0	11215	3556.796331524789	2
0	11222	3560.447149738486	1
0	11227	3561.027077617057	0
0	11249	3564.336806257378	1
0	11250	3564.579595366113	0
0	11262	3567.169797975215	1
0	11263	3568.99416020145	0
0	11289	3579.67077450397	1
0	11290	3580.629313039734	0
0	11305	3586.056987990686	1
0	11307	3587.734412908435	2
0	11308	3590.022713414634	1
0	11313	3591.012984313507	0
0	11326	3592.407116882175	1
0	11328	3592.643478191409	2
0	11329	3593.424561040924	1
0	11344	3601.441368458478	2
0	11345	3603.494379373837	1
0	11350	3603.782581117621	0
0	11370	3615.114742925508	1
0	11374	3619.934336428024	2
0	11376	3620.413937320833	3
0	11378	3621.015127310794	4
0	11380	3624.288515731315	5
0	11383	3629.504804378606	4
0	11389	3631.599299631226	3
0	11397	3633.154938219547	4
0	11400	3634.72476547324	3
0	11407	3637.746595456632	2
0	11414	3638.789239536584	1
0	11422	3641.185928861992	2
0	11425	3642.604723497025	1
0	11433	3643.152730534143	2
0	11434	3643.214676569001	1
0	11439	3643.278244433801	0
0	11445	3643.773984693569	1
0	11446	3644.351157612413	0
0	11462	3646.593453563947	1
0	11469	3651.181847347882	0
0	11479	3652.284202845301	1
0	11480	3653.015882837871	0
0	11499	3658.544264352065	1
0	11500	3661.336673586741	0
0	11520	3668.692777255633	1
0	11521	3668.968383103639	0
0	11540	3671.755501694358	1
0	11542	3675.160595941628	2
0	11543	3676.170119892403	1
0	11551	3677.334147631336	0
0	11563	3679.724912122526	1
0	11564	3679.989186477732	0
0	11590	3686.994628375426	1
0	11593	3690.691038182387	0
0	11602	3693.016901116487	1
0	11604	3693.573565240685	2
0	11605	3693.992660304269	1
0	11611	3694.645892323812	0
0	11623	3698.273118448705	1
0	11626	3701.953654872235	0
0	11632	3702.864829831152	1
0	11637	3705.768570875106	2
0	11638	3708.787941378138	1
0	11644	3709.825920509565	0
0	11658	3714.361498046856	1
0	11662	3715.924509482521	2
0	11665	3717.60675250002	1
0	11671	3718.851594622211	0
0	11681	3723.152209925854	1
0	11684	3727.993787412863	0
0	11698	3730.635725649385	1
0	11702	3733.443753083985	2
0	11703	3734.636259409417	1
0	11711	3738.765262302672	0
0	11733	3745.343180503242	1
0	11734	3746.266191138054	0
0	11741	3746.644783007495	1
0	11755	3760.144651416485	2
0	11759	3765.391629753788	3
0	11761	3766.356316670245	4
0	11762	3768.160449639041	3
0	11768	3770.09349157252	2
0	11774	3772.774753425546	1
0	11779	3773.098539410442	0
0	11811	3784.966117271667	1
0	11813	3785.631284500311	2
0	11815	3787.297790806534	3
0	11819	3789.439898500803	4
0	11820	3793.987410840632	3
0	11825	3794.026534277091	2
0	11830	3795.64633751186	1
0	11837	3796.102827693421	0
0	11846	3797.830423171974	1
0	11851	3798.159640727155	2
0	11856	3800.548268572537	3
0	11859	3803.687484082099	2
0	11864	3805.961655313257	1
0	11870	3806.012893121975	2
0	11871	3806.28762828474	1
0	11879	3808.326872605009	2
0	11883	3810.881364879847	1
0	11889	3811.846663900223	0
0	11903	3815.906288507722	1
0	11905	3816.224495012298	2
0	11907	3818.381032455274	3
0	11911	3820.760756547831	4
0	11916	3825.296467384767	5
0	11917	3825.299585136611	4
0	11922	3825.67756158105	3
0	11928	3825.939831209015	2
0	11937	3829.809733330152	3
0	11944	3831.925184424688	2
0	11953	3837.327577503822	1
0	11958	3837.476052514012	0
0	11964	3838.007096108265	1
0	11965	3838.336591262032	0
0	11992	3843.039275343407	1
0	11997	3844.811155693081	2
0	11998	3845.689142177661	1
0	12004	3846.127126049142	2
0	12005	3846.575155949256	1
0	12011	3849.772958324377	0
0	12017	3849.814133198151	1
0	12020	3850.62368051601	2
0	12022	3852.744635020226	1
0	12027	3854.021906764554	0
0	12033	3855.021680838203	1
0	12035	3855.15476988588	2
0	12036	3856.450156397141	1
0	12043	3856.884202835262	0
0	12049	3857.636286963954	1
0	12050	3857.776454958868	0
0	12057	3858.957728388231	1
0	12059	3859.014133730386	2
0	12064	3862.096371416386	3
0	12066	3863.118872555417	4
0	12067	3863.754119741437	3
0	12073	3864.427673197056	4
0	12075	3865.641973167887	3
0	12080	3866.979270140187	2
0	12085	3869.396541024995	1
0	12091	3870.714911813348	0
0	12126	3881.135428510537	1
0	12127	3881.321127630441	0
0	12139	3888.2879086765	1
0	12142	3892.845651537789	0
0	12164	3903.028641738418	1
0	12166	3904.2504836199	2
0	12168	3906.20206568456	3
0	12169	3909.090958715608	2
0	12177	3910.362417589153	3
0	12179	3912.261949747612	2
0	12185	3913.806948873218	1
0	12192	3916.064386824875	0
0	12203	3917.328012693994	1
0	12205	3917.509348675385	2
0	12209	3919.378751627593	1
0	12215	3919.87839186483	2
0	12220	3924.5698851046	1
0	12227	3927.404008297295	2
0	12229	3929.560911531407	3
0	12231	3929.706513766294	4
0	12232	3930.433121746802	3
0	12237	3930.637530526201	2
0	12243	3931.505787862375	3
0	12245	3931.652037042453	2
0	12251	3932.253992854063	3
0	12254	3933.020840937731	4
0	12256	3933.021457281408	5
0	12260	3935.270904306477	4
0	12266	3935.869452020961	3
0	12271	3937.176498848344	2
0	12277	3939.823880423354	3
0	12283	3941.852733410694	2
0	12288	3943.366138699123	1
0	12293	3946.214085875327	0
0	12299	3946.521182794219	1
0	12301	3947.804610375176	0
0	12329	3954.862577377133	1
0	12330	3958.198693933692	0
0	12336	3958.85798275968	1
0	12337	3958.983994221341	0
0	12357	3967.249806670987	1
0	12358	3967.667173331192	0
0	12365	3968.094186103415	1
0	12366	3969.852187455967	0
0	12372	3969.914090271539	1
0	12373	3970.140507958342	0
0	12385	3976.708725137343	1
0	12386	3978.561467422147	0
0	12393	3981.305829832672	1
0	12396	3982.442364541191	0
0	12406	3987.022274017306	1
0	12407	3987.613651438374	0
0	12421	3989.3593521817	1
0	12423	3990.866702450479	2
0	12424	3990.931194391743	1
0	12431	3992.741301162136	2
0	12432	3993.017038969618	1
0	12437	3993.127083788364	0
0	12459	3994.995943367223	1
0	12462	3995.241235363461	0
0	12477	4001.572160401491	1
0	12479	4002.89957155424	2
0	12481	4003.046986646094	3
0	12484	4003.751886766098	2
0	12489	4003.890767774844	1
0	12495	4004.065642335822	2
0	12502	4008.027711560761	1
0	12507	4009.011239099952	0
0	12527	4017.554781279981	1
0	12533	4021.3975946532	2
0	12537	4025.098823615379	3
0	12540	4026.689379611546	2
0	12546	4028.676589108584	1
0	12553	4030.23625259143	0
0	12563	4034.075537949247	1
0	12566	4034.835214224975	0
0	12576	4035.999793921565	1
0	12580	4038.653994484649	2
0	12582	4041.232870302816	3
0	12584	4045.029444935604	4
0	12587	4045.46056877455	3
0	12592	4047.153972855058	2
0	12598	4047.18338894384	3
0	12602	4049.391962007627	4
0	12607	4050.783199184814	5
0	12609	4051.04136469849	4
0	12614	4053.13406214334	3
0	12620	4053.483663272239	4
0	12622	4055.470779875473	3
0	12628	4058.167512359102	4
0	12630	4058.960350343142	5
0	12634	4062.458411176764	6
0	12637	4062.695466722923	5
0	12644	4065.102449907221	4
0	12650	4065.141870435761	5
0	12653	4066.727668549974	6
0	12655	4067.234395876886	7
0	12656	4067.427627169555	6
0	12661	4068.657786208863	5
0	12669	4070.008915888101	4
0	12677	4072.230999175158	3
0	12682	4072.425628224258	2
0	12690	4073.80880384853	3
0	12692	4074.133404579935	4
0	12693	4075.288686381008	3
0	12700	4077.337736858704	4
0	12701	4077.599501887475	3
0	12707	4077.626270384208	4
0	12711	4080.397184582764	3
0	12717	4080.415848596639	4
0	12718	4082.774439604512	3
0	12727	4084.703614570577	4
0	12728	4084.902265068899	3
0	12734	4088.313615390381	4
0	12737	4091.098729538444	3
0	12743	4092.852652730684	2
0	12749	4098.142606074678	1
0	12759	4101.608878148692	0
0	12773	4103.561295059983	1
0	12774	4104.572711918201	0
0	12787	4106.383448088243	1
0	12788	4107.813287908678	0
0	12815	4114.341734449723	1
0	12816	4114.977593858565	0
0	12825	4115.794971672582	1
0	12827	4116.523760840571	2
0	12830	4116.788020722861	1
0	12835	4117.538121998163	0
0	12844	4118.836951926907	1
0	12846	4119.529788084667	2
0	12850	4123.194221935458	3
0	12854	4123.322908094062	4
0	12860	4131.084466551444	5
0	12863	4132.296989316324	4
0	12872	4134.159514978436	5
0	12873	4135.988101352857	4
0	12882	4138.254093148207	3
0	12887	4140.1786818601	2
0	12895	4143.757506182998	1
0	12903	4150.38008386734	2
0	12905	4151.626478785457	3
0	12907	4152.476697374379	4
0	12909	4152.800960615595	5
0	12910	4154.234260067563	4
0	12916	4154.855755084447	5
0	12919	4155.46888731418	6
0	12922	4161.304196571142	5
0	12929	4164.853417055365	4
0	12934	4166.935869183421	3
0	12939	4167.438716881209	2
0	12946	4168.718017396229	1
0	12952	4170.326477505247	0
0	12963	4170.947178998445	1
0	12964	4171.518299891515	0
0	12999	4183.077008455055	1
0	13005	4184.033679870841	2
0	13008	4186.26168949135	1
0	13015	4187.106220509441	2
0	13016	4189.053022521072	1
0	13022	4189.18328672589	2
0	13028	4192.708713400774	1
0	13035	4194.000517359486	0
0	13041	4195.988446569662	1
0	13043	4196.685766421236	2
0	13046	4198.949323157815	1
0	13051	4199.793061918606	0
0	13072	4205.859825304761	1
0	13076	4208.491893530509	2
0	13078	4209.165808093813	3
0	13079	4209.890134520754	2
0	13084	4210.054353017798	1
0	13092	4214.35201701018	0
0	13108	4215.403535472728	1
0	13109	4215.44066380661	0
0	13122	4218.731235779611	1
0	13127	4221.050001650986	0
0	13138	4222.193576247247	1
0	13142	4227.203348671752	0
0	13154	4230.59172432384	1
0	13155	4230.817673892436	0
0	13161	4230.837309733173	1
0	13162	4231.109816262198	0
0	13168	4231.752997169215	1
0	13170	4232.221322330501	0
0	13181	4235.50535943344	1
0	13183	4235.715320177032	0
0	13191	4238.919624877065	1
0	13192	4241.322792487212	0
0	13199	4241.522094191417	1
0	13200	4242.063234186689	0
0	13219	4245.318380729534	1
0	13222	4248.221816201813	0
0	13236	4254.239953846093	1
0	13237	4255.808725482682	0
0	13243	4256.172771991671	1
0	13244	4256.838737191636	0
0	13259	4261.12853739277	1
0	13265	4266.898721118682	2
0	13269	4269.906403876574	1
0	13275	4270.5301433789	2
0	13277	4271.841060241054	1
0	13285	4272.174818591899	2
0	13286	4272.585046075941	1
0	13292	4272.625077807675	2
0	13294	4272.662863258684	3
0	13296	4273.092629778952	2
0	13303	4273.460663525457	3
0	13304	4274.648937285501	2
0	13311	4276.949805608536	3
0	13312	4277.545376991891	2
0	13317	4278.866152645178	1
0	13323	4279.021420852933	2
0	13324	4280.111084621896	1
0	13331	4281.73435389228	0
0	13337	4282.331832486666	1
0	13340	4286.254862673026	0
0	13346	4287.466658624523	1
0	13347	4287.924860811058	0
0	13356	4289.798128736006	1
0	13359	4290.46905764851	2
0	13361	4293.573163103306	1
0	13367	4294.284801768817	2
0	13368	4295.488835932752	1
0	13373	4295.616125660562	0
0	13381	4296.043058410935	1
0	13382	4298.341376593012	0
0	13388	4298.447076919488	1
0	13390	4298.795360096175	2
0	13391	4298.796530976284	1
0	13397	4301.01476137332	2
0	13399	4302.629790190185	3
0	13402	4303.815277042634	2
0	13409	4305.786207025555	1
0	13418	4310.014585911888	0
0	13451	4323.57815084551	1
0	13452	4327.499945813158	0
0	13460	4329.369133896304	1
0	13461	4330.941693996394	0
0	13467	4333.019342248745	1
0	13469	4333.335452214835	2
0	13470	4334.372527342342	1
0	13475	4334.635733659659	0
0	13504	4344.476729307479	1
0	13508	4348.880720898394	2
0	13509	4349.127867463688	1
0	13523	4354.926316803964	0
0	13563	4362.663455062484	1
0	13565	4363.298653349698	2
0	13567	4363.601862585814	3
0	13572	4366.561013872046	2
0	13580	4367.535430021938	3
0	13581	4367.74603639751	2
0	13587	4369.798704482866	1
0	13594	4372.199740471873	2
0	13598	4374.51211545513	3
0	13600	4376.839633897878	4
0	13601	4377.702528436192	3
0	13606	4377.73508804046	2
0	13612	4377.826908618216	3
0	13614	4380.763946863437	2
0	13620	4382.114864461282	3
0	13622	4382.605534036945	4
0	13626	4388.513931621019	5
0	13628	4391.154341814907	6
0	13630	4391.157970538972	7
0	13631	4392.67889709413	6
0	13637	4397.535707489375	5
0	13642	4397.601140224863	4
0	13649	4398.223626710266	5
0	13654	4400.261979280357	4
0	13660	4400.791690513955	5
0	13664	4401.272923599932	6
0	13665	4401.328529308736	5
0	13672	4401.542722236962	6
0	13675	4401.92874265269	7
0	13677	4403.557848259433	8
0	13678	4404.030026844001	7
0	13684	4404.851318791936	6
0	13690	4404.898015818479	7
0	13692	4405.144038730036	8
0	13693	4405.926520869641	7
0	13699	4408.62957711245	6
0	13707	4410.447521680177	5
0	13713	4412.064384173144	6
0	13715	4412.988099141305	5
0	13721	4414.0203294809	6
0	13729	4416.547511533804	5
0	13737	4419.349351134035	4
0	13744	4421.891461400125	5
0	13745	4422.686194145154	4
0	13750	4422.718440216833	3
0	13755	4422.831091963033	2
0	13760	4423.361199139324	1
0	13769	4427.086912641675	2
0	13770	4428.392978274851	1
0	13780	4430.980085632593	0
0	13792	4432.549914401019	1
0	13797	4439.094253908095	2
0	13798	4440.911116050548	1
0	13803	4441.584331643428	0
0	13841	4456.919043001423	1
0	13843	4458.519773887349	2
0	13845	4458.79994142664	3
0	13849	4462.018894819157	4
0	13854	4464.21138050532	3
0	13860	4465.93837007962	2
0	13866	4466.279452529146	3
0	13868	4467.381723508819	2
0	13874	4467.656638948225	3
0	13879	4472.632099440349	4
0	13881	4472.763285970435	5
0	13882	4473.162189073422	4
0	13890	4473.770183469743	3
0	13895	4474.022300879555	2
0	13903	4476.592000862927	3
0	13904	4476.974972147729	2
0	13909	4477.039908546859	1
0	13914	4477.83574747689	0
0	13920	4479.685140109725	1
0	13921	4480.472926688285	0
0	13963	4491.201861786283	1
0	13964	4495.558429978357	0
0	13970	4495.973871316272	1
0	13972	4497.887800591861	0
0	13986	4502.291548912523	1
0	13987	4502.453175553255	0
0	13999	4506.139017089895	1
0	14000	4507.302859704424	0
0	14007	4509.363608395624	1
0	14012	4511.770264430533	0
0	14029	4517.334331517153	1
0	14032	4520.123616535444	2
0	14035	4523.853864139937	1
0	14040	4524.042480976176	0
0	14057	4525.259050783564	1
0	14063	4530.385074938783	0
0	14077	4534.79782916953	1
0	14079	4535.255550040722	2
0	14083	4538.120309399122	3
0	14089	4542.406547987931	4
0	14091	4542.702732129059	5
0	14092	4544.649438205426	4
0	14098	4545.756961338573	5
0	14101	4546.654542466576	4
0	14107	4546.660292856223	5
0	14108	4546.703533360251	4
0	14117	4549.943217924287	3
0	14122	4550.658030802986	2
0	14127	4550.678611777822	1
0	14134	4552.075058255151	2
0	14135	4552.211482722573	1
0	14142	4552.530191930333	0
0	14174	4568.469708064186	1
0	14175	4569.377196554102	0
0	14184	4571.105321433367	1
0	14190	4574.932574267703	0
0	14205	4578.441984789575	1
0	14207	4580.401235912619	2
0	14208	4580.932995423738	1
0	14214	4580.980396870702	2
0	14216	4582.1189759961	1
0	14224	4585.625931925582	0
0	14306	4606.755942494243	1
0	14307	4609.063133198123	0
0	14313	4609.197887457688	1
0	14317	4610.186703799877	0
0	14334	4614.516352652081	1
0	14339	4618.303346811619	2
0	14343	4619.062025247204	3
0	14346	4622.497678818812	2
0	14352	4624.853163953199	1
0	14358	4625.202904432988	0
0	14384	4630.853403807663	1
0	14387	4632.496174752673	0
0	14399	4635.384826833702	1
0	14401	4635.855378911643	2
0	14407	4639.491346591917	3
0	14409	4639.559517886317	4
0	14410	4639.85268467643	3
0	14416	4640.201204836986	2
0	14421	4641.197618952059	1
0	14434	4646.098448361417	2
0	14435	4646.214064921985	1
0	14440	4646.236204331841	0
0	14456	4649.988485233384	1
0	14459	4652.211018582026	2
0	14461	4654.563666160055	1
0	14466	4655.412867219564	0
0	14496	4669.311964758782	1
0	14500	4671.58707428259	2
0	14502	4673.644508375848	3
0	14503	4674.307923487701	2
0	14509	4675.01933845008	1
0	14514	4676.164435254249	0
0	14521	4677.960544465352	1
0	14526	4681.478936806709	0
0	14544	4686.609814350205	1
0	14546	4691.016858678507	0
0	14568	4697.212903519672	1
0	14569	4697.399379333233	0
0	14589	4708.188711514586	1
0	14594	4711.28635205709	2
0	14595	4711.659741753162	1
0	14604	4714.413783768027	0
0	14610	4714.689720135114	1
0	14614	4720.372107520994	2
0	14616	4721.936347642504	3
0	14618	4722.380919414674	4
0	14619	4723.955709106273	3
0	14626	4728.510324735635	2
0	14631	4729.357840479395	1
0	14636	4730.064524624708	0
0	14646	4732.435529154616	1
0	14647	4732.75728650642	0
0	14654	4733.291200264918	1
0	14656	4734.149922204126	2
0	14658	4734.172397936074	3
0	14660	4734.360290194327	4
0	14662	4734.972339581894	5
0	14663	4735.027465923274	4
0	14668	4735.08275221995	3
0	14673	4736.001382435216	2
0	14678	4736.451191404199	1
0	14685	4737.23327718391	0
0	14691	4739.768572151585	1
0	14693	4740.075204493985	2
0	14696	4741.540618290881	3
0	14698	4742.069067107958	4
0	14700	4744.505886534278	3
0	14706	4746.291473143308	4
0	14710	4749.23805402587	3
0	14715	4749.492124050204	2
0	14720	4750.532894375544	1
0	14725	4752.910499628839	0
0	14736	4756.505325729659	1
0	14737	4757.599203919067	0
0	14746	4759.048290496176	1
0	14747	4760.98857585811	0
0	14776	4769.947058939275	1
0	14778	4771.158123361866	2
0	14779	4773.965419590034	1
0	14788	4775.258466258336	2
0	14790	4777.019026615479	3
0	14791	4777.591828581137	2
0	14796	4778.084048013885	1
0	14801	4778.302306437501	0
0	14807	4778.451288969368	1
0	14809	4780.190782377667	0
0	14818	4780.684977659866	1
0	14819	4780.975108835777	0
0	14833	4784.141690973898	1
0	14834	4784.989618360049	0
0	14854	4792.552104830085	1
0	14861	4797.191168251263	2
0	14862	4798.834628200786	1
0	14870	4799.765628071652	0
0	14890	4804.608504886308	1
0	14891	4805.722626912625	0
0	14904	4806.543489436433	1
0	14905	4807.827426028344	0
0	14929	4813.411114455928	1
0	14931	4813.493826116717	2
0	14935	4813.974390229328	3
0	14939	4819.9157068154	4
0	14947	4823.180448023095	5
0	14950	4824.104913422644	4
0	14955	4824.248349415626	3
0	14960	4824.412428819539	2
0	14967	4826.554816655945	1
0	14979	4830.64758865389	0
0	14991	4838.053311643821	1
0	14993	4839.604960468225	2
0	14994	4839.765217803461	1
0	15000	4840.686313319931	0
0	15022	4844.392651798364	1
0	15024	4844.445588658817	2
0	15025	4844.931933009453	1
0	15032	4845.737187570649	0
0	15062	4853.025294308159	1
0	15063	4853.033497428544	0
0	15079	4856.432954053663	1
0	15082	4857.915953159881	0
0	15103	4863.126184305231	1
0	15107	4868.171040114161	2
0	15108	4868.556513562862	1
0	15114	4869.612336023229	2
0	15116	4870.6058460227	3
0	15117	4870.965004518281	2
0	15123	4871.317497511721	1
0	15130	4875.109869405767	0
0	15142	4879.32633889754	1
0	15145	4880.236662712534	0
0	15152	4880.580189777184	1
0	15153	4880.963979696124	0
0	15159	4881.174496270705	1
0	15160	4882.489221252263	0
0	15174	4884.810695314694	1
0	15175	4888.454497865727	0
0	15182	4891.411679086985	1
0	15183	4891.41454710688	0
0	15191	4896.990821274148	1
0	15192	4901.168170788691	0
0	15241	4910.052022737453	1
0	15243	4912.798618772729	2
0	15244	4913.951666243074	1
0	15252	4914.108177758507	0
0	15277	4919.837099812795	1
0	15278	4920.834536312022	0
0	15284	4921.058943307189	1
0	15285	4923.840597782244	0
0	15293	4928.114859587288	1
0	15294	4928.281092589639	0
0	15311	4931.507044341762	1
0	15316	4935.019979612942	0
0	15322	4935.667136993332	1
0	15324	4936.357258515917	2
0	15325	4936.975774176825	1
0	15331	4937.3144411147	2
0	15340	4942.244272633346	1
0	15346	4942.435364133554	2
0	15349	4943.902710479429	3
0	15351	4946.794938465547	4
0	15352	4947.841324943349	3
0	15357	4947.901226928688	2
0	15362	4948.153120369418	1
0	15368	4951.351278186826	0
0	15392	4959.450486048261	1
0	15395	4960.531237609628	0
0	15425	4976.425241366817	1
0	15427	4977.935110474467	2
0	15428	4978.59487676015	1
0	15434	4983.910310468631	0
0	15440	4983.922909411894	1
0	15442	4985.784416349769	2
0	15444	4986.204279721808	3
0	15445	4987.221585332786	2
0	15450	4987.940738357157	1
0	15457	4991.038252535926	0
0	15468	4994.078999790989	1
0	15470	4994.720354209228	2
0	15471	4994.885785684854	1
0	15477	4995.802057449021	0
0	15488	4998.056899448717	1
0	15492	5002.48262245171	0
0	15509	5012.382938803362	1
0	15510	5015.160930208032	0
0	15519	5017.549182041174	1
0	15525	5020.655418305046	0
0	15532	5021.439711779711	1
0	15534	5022.365583132479	2
0	15538	5024.327605693703	3
0	15539	5028.766454327826	2
0	15544	5029.015994498325	1
0	15551	5029.323599809001	2
0	15552	5029.573971638857	1
0	15558	5029.969612956746	2
0	15561	5030.554927304803	1
0	15574	5035.676054744075	0
0	15587	5036.398522427334	1
0	15591	5039.307927467695	0
0	15597	5041.893538655152	1
0	15598	5043.324140391708	0
0	15616	5046.739203942904	1
0	15620	5048.27513519755	2
0	15621	5048.62585366188	1
0	15630	5050.153756817347	0
0	15654	5054.958445712862	1
0	15657	5056.604667322354	0
0	15663	5057.064449965585	1
0	15666	5057.403698698004	2
0	15668	5057.578175437582	3
0	15671	5058.814429067709	2
0	15678	5060.012324775968	3
0	15679	5062.740361029514	2
0	15688	5065.027828236231	1
0	15696	5067.279153054781	0
0	15727	5075.964754442189	1
0	15731	5082.498681049173	2
0	15732	5082.666637806686	1
0	15739	5084.101099979746	2
0	15741	5086.23791892509	1
0	15748	5087.699921567	2
0	15750	5088.301572172833	3
0	15752	5088.427594097227	4
0	15753	5088.474353980096	3
0	15759	5089.608178017489	2
0	15766	5091.542767552827	1
0	15771	5091.54950403325	0
0	15789	5097.75880499791	1
0	15790	5098.264097242797	0
0	15813	5106.21777642963	1
0	15817	5106.631263047428	2
0	15820	5111.218452748138	1
0	15825	5112.706937890167	0
0	15833	5113.525188798647	1
0	15835	5114.546677003185	0
0	15843	5117.532289647534	1
0	15847	5117.953033564149	2
0	15848	5118.679788246396	1
0	15855	5119.451010734593	0
0	15866	5122.25407223614	1
0	15867	5122.419343720803	0
0	15891	5126.327697731339	1
0	15893	5126.96183556786	2
0	15894	5127.548921044539	1
0	15899	5128.02819518706	0
0	15910	5134.156537276163	1
0	15912	5138.074925953905	0
0	15934	5144.334166075439	1
0	15935	5144.640074440709	0
0	15948	5149.825452216318	1
0	15953	5152.426258570612	2
0	15954	5152.593977634789	1
0	15964	5155.369527404517	0
0	15975	5156.435134618529	1
0	15977	5156.659289280401	2
0	15980	5159.604455666323	3
0	15981	5161.565108597832	2
0	15987	5163.031387732397	1
0	15992	5165.28949787236	0
0	16001	5172.363060351045	1
0	16002	5172.408143701891	0
0	16009	5174.473020526672	1
0	16011	5174.588106681713	2
0	16012	5175.19109153177	1
0	16018	5176.022161229515	0
0	16024	5176.175759469537	1
0	16027	5177.956652612216	0
0	16060	5192.33494905323	1
0	16070	5194.855435945864	2
0	16071	5196.716576977266	1
0	16076	5196.989247175576	0
0	16097	5209.722295058306	1
0	16103	5212.51663419048	2
0	16104	5213.133334415254	1
0	16109	5213.47140629354	0
0	16120	5217.987808677035	1
0	16123	5218.443526947485	0
0	16133	5222.153897626814	1
0	16134	5223.583237005191	0
0	16148	5228.982722426493	1
0	16150	5229.301208661228	2
0	16152	5230.102652329556	3
0	16156	5230.989562259345	4
0	16157	5231.40004476312	3
0	16163	5233.347758178059	2
0	16170	5234.653756596862	3
0	16171	5235.977421657051	2
0	16177	5238.912270201405	1
0	16184	5240.590349117067	2
0	16193	5244.443834189121	1
0	16198	5244.548343951226	0
0	16213	5247.602083603577	1
0	16218	5248.773598866531	0
0	16241	5259.025137457168	1
0	16244	5262.4258686943	0
0	16258	5265.596946675748	1
0	16259	5265.762469577649	0
0	16265	5266.058360809222	1
0	16267	5266.474837073561	0
0	16275	5267.057117109884	1
0	16276	5267.894381508717	0
0	16282	5270.466412094805	1
0	16285	5271.514020520109	0
0	16305	5275.462004873381	1
0	16306	5275.869484467805	0
0	16315	5278.215553842592	1
0	16320	5280.852872657634	0
0	16348	5292.353421050669	1
0	16351	5296.56155029055	0
0	16357	5296.829445557271	1
0	16359	5297.340651111836	0
0	16380	5299.938679588179	1
0	16386	5303.401421716298	0
0	16449	5320.77788672829	1
0	16451	5323.59452249914	2
0	16452	5324.393646507838	1
0	16460	5325.408642284537	0
0	16473	5327.176539039492	1
0	16474	5329.213377609521	0
0	16486	5333.609815018923	1
0	16489	5335.159818775416	0
0	16496	5336.377617281602	1
0	16497	5336.706143208327	0
0	16518	5339.742324237097	1
0	16519	5340.053690163296	0
0	16529	5343.760530114162	1
0	16531	5344.508698287728	2
0	16532	5345.305489649935	1
0	16538	5345.80656268171	0
0	16566	5350.00106026333	1
0	16570	5350.34608940816	2
0	16571	5350.633863505934	1
0	16578	5352.640314981181	0
0	16585	5353.870282067941	1
0	16588	5354.775359052356	0
0	16599	5357.768081401115	1
0	16600	5357.775749207458	0
0	16633	5368.255805772655	1
0	16635	5369.54009888738	2
0	16640	5369.970856598332	3
0	16641	5370.135916172979	2
0	16647	5370.689431837135	1
0	16657	5375.198530433745	0
0	16663	5375.505456838319	1
0	16664	5376.8775323796	0
0	16674	5379.985345523092	1
0	16675	5381.174119353736	0
0	16681	5381.662269278799	1
0	16682	5381.876350528001	0
0	16708	5387.467831787996	1
0	16710	5387.921928892255	2
0	16711	5388.394011301181	1
0	16721	5392.762746048231	2
0	16722	5394.195047256687	1
0	16729	5395.976442177875	2
0	16732	5396.989748855002	3
0	16734	5397.767546822599	4
0	16735	5398.740535284098	3
0	16741	5399.408652378094	2
0	16748	5403.037481399492	1
0	16757	5406.207734422546	2
0	16760	5407.839765471855	1
0	16768	5410.761163166133	0
0	16791	5419.627096518976	1
0	16792	5420.556742942003	0
0	16798	5420.950122393082	1
0	16802	5423.244724060455	2
0	16804	5423.552473237073	3
0	16807	5428.326174738974	2
0	16812	5428.332551449295	1
0	16819	5430.457060974275	2
0	16822	5431.560344059873	1
0	16828	5433.06299519304	0
0	16851	5440.283156184052	1
0	16853	5442.305827752913	0
0	16884	5450.576115645135	1
0	16886	5451.861399713805	2
0	16887	5452.713356213665	1
0	16896	5457.53335681959	0
0	16902	5457.910349305799	1
0	16905	5458.914016877421	2
0	16906	5463.322414387322	1
0	16915	5463.760414885215	0
0	16922	5470.581804122186	1
0	16923	5471.837627207914	0
0	16931	5475.224817178668	1
0	16933	5478.876967646004	0
0	16950	5480.976971121369	1
0	16956	5486.214869574391	2
0	16957	5486.649902801815	1
0	16966	5487.940753481748	0
0	16977	5489.175474660842	1
0	16980	5489.634734178451	2
0	16983	5490.729315856737	3
0	16985	5494.206702961172	2
0	16992	5497.480727246446	3
0	16993	5497.899082378301	2
0	16999	5499.350512224479	3
0	17002	5501.191512860517	4
0	17004	5501.797081374153	5
0	17005	5502.361841206684	4
0	17012	5503.216475149441	5
0	17013	5503.959217155868	4
0	17018	5505.079208732839	3
0	17023	5505.249161374374	2
0	17031	5508.746845826262	3
0	17038	5512.056184173006	2
0	17044	5512.191961851607	1
0	17051	5513.450857504663	0
0	17071	5522.234017355413	1
0	17072	5522.764147293196	0
0	17094	5530.343740083661	1
0	17097	5532.289775089607	0
0	17120	5545.47714997587	1
0	17121	5549.535759023808	0
0	17127	5549.696069199828	1
0	17128	5549.870642692991	0
0	17171	5562.183338943977	1
0	17173	5564.921650992028	0
0	17190	5572.232809857092	1
0	17195	5575.459679634775	0
0	17209	5582.255770344067	1
0	17212	5583.327598287376	0
0	17224	5585.875122636936	1
0	17230	5587.92784976257	2
0	17232	5588.759022379708	1
0	17244	5593.608781673548	2
0	17246	5595.912188714444	3
0	17248	5598.208738532815	4
0	17251	5599.39725837287	3
0	17257	5600.469935682475	4
0	17258	5600.475277753989	3
0	17264	5602.108291152963	2
0	17270	5603.059430724729	1
0	17277	5603.861926322446	2
0	17279	5604.087449024479	3
0	17282	5609.665337095326	2
0	17288	5610.42741283228	1
0	17293	5610.497818196629	0
0	17299	5610.85627823571	1
0	17301	5612.808138221479	2
0	17302	5613.280422606386	1
0	17307	5613.845902320524	0
0	17313	5614.188271502763	1
0	17315	5614.517212015603	0
0	17334	5620.446932984321	1
0	17336	5620.533547722446	2
0	17338	5620.956649029882	1
0	17349	5623.65767378925	0
0	17362	5629.942972442587	1
0	17363	5631.523123720533	0
0	17404	5639.213967237878	1
0	17405	5640.69235068919	0
0	17411	5641.399313577114	1
0	17412	5641.450807707728	0
0	17420	5645.204903641133	1
0	17423	5645.646653872696	0
0	17436	5648.237948489265	1
0	17437	5648.404542864668	0
0	17443	5648.539988879689	1
0	17446	5651.625823365382	2
0	17448	5652.300603662027	3
0	17451	5653.146293993833	2
0	17456	5653.252681661773	1
0	17461	5653.6958867389	0
0	17474	5655.938799547596	1
0	17475	5656.932506557701	0
0	17487	5657.854948479914	1
0	17489	5660.515947218164	0
0	17520	5670.304991677892	1
0	17522	5671.110831108116	2
0	17523	5673.218873796691	1
0	17530	5675.131209065442	2
0	17532	5676.441919386002	3
0	17534	5676.730870778206	4
0	17537	5678.047994481498	5
0	17538	5679.471609296507	4
0	17544	5680.780767800744	5
0	17546	5682.633427294441	4
0	17554	5685.237215854644	3
0	17559	5686.145078303027	2
0	17564	5687.443528102371	1
0	17569	5688.367941862486	0
0	17604	5697.04748232598	1
0	17607	5700.297705734961	0
0	17619	5703.377978604127	1
0	17620	5705.971842901693	0
0	17659	5725.669379942347	1
0	17665	5729.472885166296	2
0	17669	5733.293931780898	3
0	17673	5734.013385503087	4
0	17676	5738.515650272799	3
0	17683	5738.733897310862	4
0	17684	5739.13794500553	3
0	17691	5739.738499716673	2
0	17696	5740.09382379734	1
0	17705	5744.69441768807	2
0	17706	5745.040213727863	1
0	17712	5746.829867924046	0
0	17732	5753.588565708758	1
0	17733	5753.784826335203	0
0	17742	5756.415900444592	1
0	17743	5757.947253810604	0
0	17777	5772.194655172456	1
0	17786	5777.047301180094	0
0	17794	5778.871655835797	1
0	17795	5779.194694748649	0
0	17806	5779.960958813743	1
0	17809	5781.898763882822	2
0	17810	5782.647797427171	1
0	17815	5784.151641338299	0
0	17830	5787.403940924313	1
0	17832	5788.700995905925	2
0	17836	5790.886591169491	1
0	17842	5791.793667547786	2
0	17845	5793.158391161161	3
0	17847	5793.825048533189	4
0	17848	5795.967763344616	3
0	17853	5797.344621994536	2
0	17861	5799.018579302464	3
0	17864	5802.934433630653	2
0	17870	5803.701601387582	3
0	17872	5804.332548765651	4
0	17874	5805.915240355998	3
0	17881	5809.539021025928	4
0	17882	5810.374305084368	3
0	17894	5817.629568908928	2
0	17903	5822.790478583067	1
0	17909	5822.843962008336	2
0	17912	5824.732247019878	3
0	17915	5824.850997776717	2
0	17921	5826.747704592291	1
0	17927	5826.781007803693	2
0	17930	5826.953407258759	3
[...]
5	80942	26271.681069483113	5126.7547669908
5	80947	26271.733089486473	5120.56366886
5	80952	26272.298825775179	5119.2284586116
5	80959	26274.274657854351	5120.7045775336
5	80980	26278.445041977083	5106.4600503584
5	80992	26282.938257281358	5099.643633455
5	80998	26283.174095943033	5098.3033685984
5	81005	26284.325718262973	5092.4379951109
5	81012	26285.042523717018	5080.6226221745
5	81022	26286.960419586024	5074.0229984316
5	81043	26290.08692799764	5072.406418027
5	81053	26293.312082938016	5071.0273179369
5	81083	26306.304499316689	5082.6357958222
5	81116	26310.723735092898	5083.2543288084
5	81123	26311.607854655699	5077.2001043348
5	81145	26320.396413736939	5078.701006781
5	81441	26416.025596489559	5172.7359003362
5	81451	26418.543435105628	5168.3654983867
5	81457	26420.78026860065	5167.4155556495
5	81464	26424.75127606889	5163.1830010141
5	81479	26441.594729466955	5164.5265860537
5	81525	26453.354985177102	5172.7193254129
5	81608	26483.072095948343	5189.9808068092
5	81616	26486.409489193941	5192.922072516
5	81622	26488.277383615417	5189.1180601504
5	81627	26488.660885776335	5181.5668393677
5	81642	26495.405679375356	5188.3067190593
5	81810	26540.702364256103	5230.3678768443
5	81825	26542.940465051683	5223.390926163
5	81896	26567.469733473424	5247.836128853
5	81904	26568.617365651799	5244.5175590489
5	81909	26569.549278689268	5241.0481955807
5	81918	26571.855732225819	5243.3424976442
5	81928	26577.775512449987	5240.6294917056
5	81953	26585.953937363946	5247.0086478217
5	81962	26593.456513332685	5247.0711782095
5	81991	26601.749892486622	5251.9443411535
5	82007	26607.287978349537	5248.3367353306
5	82014	26608.621310376842	5242.6628865223
5	82035	26610.917945144407	5243.7855176073
5	82040	26611.082936313931	5224.9059472879
5	82054	26618.680232963899	5232.4293620578
5	82213	26664.37402441032	5260.7831252609
5	82222	26668.774779306096	5256.1329005624
5	82227	26669.143731207348	5252.8500410199
5	82232	26670.130250203173	5253.2588658598
5	82237	26670.427424874741	5244.4009366721
5	82242	26673.51621034245	5244.4892496248
5	82247	26674.523555741585	5241.6268278407
5	82262	26679.532311277435	5230.6351539805
5	82423	26728.204671861415	5275.3063576549
5	82428	26729.539740214987	5262.3177875899
5	82434	26730.447417900642	5261.6786890833
5	82445	26735.759245196213	5248.4013204848
5	82462	26738.137479747356	5246.2788174742
5	82487	26744.991977325154	5251.4489048593
5	82508	26749.172018874012	5250.8843720561
5	82531	26755.077005829227	5238.572429735
5	82537	26757.491495851881	5233.9791407772
5	82546	26761.189039092849	5233.9672568017
5	82557	26765.453542957777	5234.223596213
5	82573	26771.909383696627	5240.0630454558
5	82580	26772.444221769154	5239.0122210355
5	82623	26788.952204242919	5250.4996578858
5	82628	26789.394990320137	5249.1582005405
5	82639	26793.984465289399	5252.3698934721
5	82658	26800.097088934774	5257.9543358263
5	82664	26801.535843197923	5257.5473716794
5	82669	26801.659691004217	5255.0491939645
5	82677	26805.941054431284	5257.0425978278
5	82688	26808.618274604124	5255.3207857274
5	82695	26815.225590111766	5258.0739980896
5	82702	26822.313793767891	5249.6742782252
5	82715	26825.883578075682	5240.8226299419
5	82742	26830.140147809486	5241.0359332459
5	82763	26836.624155541167	5236.8928165508
5	82775	26840.061383885206	5238.0521165236
5	82788	26846.832628858904	5244.1514892119
5	82855	26864.494230348684	5257.6758377806
5	82872	26870.743675626684	5258.7495378214
5	82895	26874.097159967535	5252.173728027
5	82900	26874.815434431603	5242.3604897115
5	82905	26876.04100388554	5212.3597233761
5	82910	26878.871321819234	5213.380168091
5	82918	26887.423464313346	5212.6812906131
5	82923	26889.04120358638	5210.9104436758
5	82928	26893.56427723328	5210.9746941799
5	82935	26894.288825701374	5208.5271707187
5	82961	26906.02638867596	5217.8208774001
5	82983	26915.29103009266	5224.6323705721
5	82995	26918.105161703419	5223.7823659749
5	83006	26918.959835142094	5208.6911359164
5	83015	26923.721228515378	5187.19429762
5	83170	26976.5305620725	5235.1370226973
5	83204	26984.757447107666	5241.1473845578
5	83221	26986.123310232684	5237.8767238235
5	83230	26991.955600786062	5239.587227034
5	83254	27002.894550814115	5247.6516560057
5	83265	27004.101727870965	5239.7190708685
5	83270	27005.784252351645	5236.5523569578
5	83279	27008.652132000281	5237.1448237396
5	83294	27009.788212819048	5223.8902562913
5	83306	27013.109512935129	5221.9536292933
5	83320	27015.244590134509	5223.2700606395
5	83416	27047.811315206657	5254.7288320054
5	83422	27048.548873414667	5254.8762119681
5	83431	27054.299499715348	5259.2080300467
5	83452	27063.498200540379	5259.8062804259
5	83627	27132.316827565542	5319.0651096756
5	83644	27135.536055032324	5317.4598942765
5	83649	27137.219134546933	5309.1262670934
5	83664	27139.829884983434	5308.4461107048
5	83795	27176.137463526341	5343.3223585064
5	83800	27176.192990615073	5338.6700999145
5	83806	27177.494598850076	5337.8974869313
5	83811	27178.304417537559	5321.5104665459
5	83816	27179.303730499647	5316.8006922236
5	83821	27180.222426510246	5315.6375012035
5	83831	27185.420758799928	5319.0324981205
5	83842	27188.167708532336	5316.9086366166
5	83847	27188.919681211173	5315.5004090609
5	83860	27192.067632889223	5311.3608170519
5	83883	27204.549052224645	5313.9301437906
5	83898	27209.838547147416	5315.4972253552
5	83924	27225.194367047561	5327.0393007762
5	83986	27243.425736817383	5344.9912763914
5	83998	27246.359808288011	5343.3258646055
5	84016	27250.379813761951	5344.6777304166
5	84028	27251.470825826716	5341.2516597351
5	84044	27253.715884571398	5330.5504069174
5	84049	27255.112235301635	5325.5958965034
5	84062	27259.619352474215	5328.6188979363
5	84109	27276.951135436436	5345.3495511893
5	84121	27280.410616337345	5347.8272591876
5	84136	27286.240535290924	5347.3440290243
5	84146	27289.201662827121	5350.2385813141
5	84165	27291.973059555087	5345.6637571368
5	84170	27292.037282037551	5344.7105390647
5	84175	27293.19143678066	5345.6505088892
5	84182	27294.906776984085	5338.9226759748
5	84187	27298.15254889437	5339.4415624534
5	84192	27299.422093218171	5327.2853596668
5	84201	27300.131662827841	5316.368848892
5	84251	27316.925677932588	5331.4272284033
5	84261	27318.419504792446	5330.7232052421
5	84394	27366.056627939463	5370.2185161978
5	84558	27415.823034022311	5416.3192175218
5	84570	27419.524435449222	5410.9101132257
5	84614	27433.740316272963	5418.9962728702
5	84626	27436.785950990635	5410.799248412
5	84660	27449.085215014061	5421.4242391548
5	84751	27473.254464720011	5443.0956471565
5	84793	27491.582791991927	5456.0334125398
5	84804	27494.271782287784	5455.1723867333
5	84817	27498.9274345175	5451.3715254835
5	84824	27500.122048050297	5446.6067057153
5	84844	27502.602064655406	5448.6166523134
5	84859	27506.969671985202	5443.0632884052
5	84926	27523.723980393143	5455.5220178784
5	84933	27525.355138797459	5454.5348876125
5	84945	27527.001138707142	5448.6902589064
5	84952	27532.317319314749	5453.6144628486
5	84957	27534.57229548675	5450.8533884061
5	84970	27541.363878197232	5434.77546115
5	85057	27567.170541415687	5451.6323883814
5	85114	27586.160652575927	5469.311378569
5	85119	27586.625225957184	5468.9239558871
5	85124	27587.741586879283	5470.0199555995
5	85142	27597.635195238549	5455.1931301499
5	85193	27605.751120578853	5456.7225506066
5	85199	27607.712311699194	5447.901035752
5	85212	27614.198909698452	5434.1465844239
5	85586	27749.524191907705	5567.9771772921
5	85591	27750.678287138627	5566.6181485471
5	85596	27751.40376266374	5565.3397148475
5	85602	27753.428018995947	5566.2640889017
5	85609	27754.885916220699	5563.6175297584
5	85633	27766.444504645861	5567.0792282431
5	85649	27769.745901666266	5564.0772038311
5	85654	27769.963591708493	5557.8658901715
5	85667	27774.735439528843	5562.1685046208
5	85709	27785.779816931342	5554.128444345
5	85714	27789.771111599903	5555.2584246925
5	85719	27791.836757120903	5547.148815778
5	85727	27795.884631407318	5547.1072052396
5	85732	27797.831082785064	5545.3629272216
5	85737	27798.667527934438	5539.0097288257
5	85744	27805.22559130743	5545.0855429179
5	85751	27806.221552412445	5540.9163600463
5	85756	27806.816412197023	5531.8018795183
5	85766	27812.632420645399	5533.1840778259
5	85803	27822.40695316315	5541.9838812871
5	85808	27823.985164600427	5541.5229723381
5	85817	27828.170902271971	5542.962184077
5	85830	27833.204005414642	5545.7578860205
5	85845	27841.194418146444	5549.9530521687
5	85868	27846.042001869978	5551.7297053341
5	85906	27858.573616906442	5557.9613459316
5	85911	27858.887658444866	5555.6875003115
5	85922	27861.868513012225	5551.2303589438
5	85949	27871.396394847269	5558.0620443845
5	85972	27877.71808172333	5544.9999601842
5	86006	27886.04596298071	5551.451799487
5	86026	27889.477603274682	5549.4686510707
5	86301	27963.770177059469	5623.0146830365
5	86311	27964.84420072362	5607.7661662217
5	86318	27967.324508273628	5593.9830109497
5	86324	27968.066994710679	5592.6058278448
5	86346	27981.98668018052	5605.0116502083
5	86433	28016.008816749393	5638.2082416527
5	86452	28022.891215454249	5643.3669994043
5	86495	28037.977201929526	5649.2595482363
5	86518	28042.228303967411	5647.0060038669
5	86523	28042.271490029484	5630.5738756273
5	86528	28045.026032470752	5620.279960522
5	86539	28049.94070411709	5611.4580648097
5	86629	28074.538821072973	5628.7075756317
5	86643	28078.337362222844	5626.7825390449
5	86651	28081.449316014877	5615.9168437079
5	86666	28084.3394637006	5615.3199535707
5	86904	28177.376259114226	5704.6147824113
5	86909	28177.948914758261	5697.7415976073
5	86915	28179.269345430518	5695.8967009002
5	86927	28183.475049619345	5694.4294291955
5	86939	28185.95561476881	5696.7523256208
5	86947	28186.919630089132	5695.4641041479
5	87003	28196.918931094017	5703.8725300827
5	87024	28206.783646667295	5711.8429622626
5	87092	28238.975943286487	5728.9569312927
5	87099	28239.964923710941	5724.513786697
5	87126	28248.051761032423	5726.9615927945
5	87135	28250.071896957187	5711.2230987363
5	87150	28256.726815823733	5716.3538107085
5	87161	28266.294843043142	5706.4524524025
5	87215	28279.664133792306	5718.4733836181
5	87222	28280.481849318747	5716.423298671
5	87233	28287.132972017152	5720.4688968018
5	87286	28301.659133080415	5733.6979680922
5	87353	28328.965032260294	5752.6709318908
5	87366	28332.245465289678	5755.0594573113
5	87383	28341.36209747947	5760.7184610711
5	87458	28361.50968108667	5773.8231948223
5	87467	28362.456872333975	5770.5037777433
5	87480	28364.956949336705	5754.8451276119
5	87493	28367.781137842243	5753.5882532239
5	87588	28389.078299021084	5773.6959892851
5	87612	28401.033714648241	5782.733961179
5	87623	28402.120733407202	5778.8243224618
5	87634	28404.68039997487	5776.8225030091
5	87676	28419.335771204542	5790.9056447342
5	87683	28421.02028424766	5792.1742783661
5	87700	28428.928249214103	5790.7946091331
5	87726	28437.585202594983	5798.5099863315
5	87750	28448.915919752565	5808.5117463244
5	87795	28470.504236162263	5827.8657668316
5	87820	28487.825553243411	5836.2870418918
5	87846	28497.878672044919	5843.4285060986
5	87857	28499.463689056203	5838.3237654517
5	87888	28508.375331008029	5843.3437452766
5	87906	28510.850160851995	5844.909061808
5	87915	28517.006925346661	5850.0518164003
5	87922	28518.254666745091	5851.2756732557
5	87931	28523.277394546966	5846.3059628399
5	88059	28570.560633984642	5893.5765025051
5	88066	28571.197931515652	5892.0581612977
5	88145	28594.094855257743	5914.8708530226
5	88174	28601.176668715366	5920.2989658846
5	88305	28651.926841693322	5964.0330096449
5	88317	28657.150580560206	5967.5520803432
5	88324	28657.750972214581	5966.8040437438
5	88331	28658.364071845173	5951.3632973416
5	88344	28665.78852005901	5954.300163268
5	88362	28669.161446879066	5957.5265886371
5	88376	28676.535477320921	5959.0787381331
5	88393	28684.074372070738	5965.7629522728
5	88398	28685.171291130704	5966.4483858999
5	88407	28688.958456822281	5969.9397128313
5	88417	28694.104600229907	5971.1086388379
5	88441	28698.615188257743	5971.5755782491
5	88460	28708.190793321966	5979.5938814634
5	88469	28713.092116909292	5982.8232054888
5	88484	28718.436227295399	5986.8529776443
5	88539	28737.199712980439	6000.8345250829
5	88544	28737.429719296264	5995.0265656641
5	88549	28738.168960343837	5993.4275636021
5	88563	28752.886282051881	5993.6293783413
5	88591	28760.44918595817	6000.2004275759
5	88601	28766.092172443312	6003.2998438533
5	88626	28772.646155878499	6009.5255167536
5	88635	28775.573018502972	5992.3426433645
5	88650	28779.020437489307	5986.7621164491
5	88659	28781.884822087141	5985.1655904016
5	88710	28799.734976485973	5998.3246297543
5	88717	28800.283191184873	5996.2699970965
5	88737	28804.168934587949	5980.9907485836
5	88753	28808.664372127736	5984.7979684476
5	88785	28817.589925000713	5956.8549399573
5	88797	28823.607339986647	5942.1539479982
5	88806	28827.069354323684	5938.5935278082
5	88842	28836.900458091941	5935.3281179979
5	88855	28842.129373297249	5935.5820261262
5	88882	28845.719736647904	5937.4402555686
5	88887	28845.976817478209	5932.9843367713
5	88897	28850.915330822712	5925.3718716737
5	88913	28854.682597375859	5926.8982186975
5	88947	28864.92297463806	5935.142071765
5	88954	28869.09117727739	5937.3958406892
5	88959	28869.190216561203	5904.588180313
5	88969	28872.898607703395	5904.3826309838
5	89147	28936.162227884871	5965.8376064049
5	89164	28943.134353612965	5967.4456848555
5	89192	28950.359688830801	5966.1827829446
5	89205	28953.887540255504	5955.3947958736
5	89219	28955.921855298033	5955.972037389
5	89235	28962.520126820186	5958.3543824056
5	89246	28963.108343735541	5948.6195801462
5	89253	28965.767888048164	5950.5122653767
5	89266	28971.257322079952	5944.6255897147
5	89289	28976.245752390268	5949.4701643127
5	89312	28985.020915366258	5958.1608573801
5	89348	28997.159049711732	5966.9243166048
5	89353	28998.001272103346	5962.874624801
5	89358	28999.265666505816	5960.7206131533
5	89365	29002.576210820138	5961.2038144293
5	89408	29015.918617621488	5974.4738343993
5	89419	29025.950070175135	5984.1022774044
5	89442	29033.569170266965	5988.4247732494
5	89465	29042.725005046198	5964.1223723616
5	89496	29047.672763911228	5965.8126599667
5	89501	29050.134483210039	5961.5298300067
5	89510	29055.074654217198	5945.2033316914
5	89533	29061.873599666466	5949.8628741754
5	89555	29069.938597763139	5955.3916738336
5	89560	29070.256163792775	5946.8687355419
5	89569	29076.163211944015	5951.8725300793
5	89601	29086.562321049754	5960.0810968345
5	89606	29087.085946059462	5959.9057037123
5	89613	29087.477554608616	5954.5387101259
5	89628	29093.024189094949	5959.6551616778
5	89650	29104.285773001373	5968.1289064086
5	89655	29106.142309805307	5965.4609190694
5	89667	29114.9555769006	5973.516252279
5	89678	29117.431770153926	5966.987287141
5	89691	29122.246213448537	5944.9914429513
5	89705	29125.847363698605	5937.0400894983
5	89712	29129.942358557825	5937.560896888
5	89717	29131.86693013261	5929.9503228553
5	89730	29138.428571068305	5932.0695027497
5	89747	29140.466587350443	5929.7661095956
5	89754	29143.063623145939	5932.0617797655
5	89794	29154.056401072526	5933.5409682651
5	89804	29155.816320093025	5935.2093264822
5	89813	29158.752889654111	5933.9490052856
5	89832	29164.995077167111	5930.2015934872
5	89837	29167.141494544084	5931.2988654358
5	89849	29169.488812436686	5911.8368861579
5	90039	29226.895746921219	5967.6982078422
5	90045	29228.452887116451	5967.3623302165
5	90050	29229.24269858525	5967.6409307792
5	90057	29231.447091314301	5954.5692854066
5	90062	29238.160733830837	5949.3145761832
5	90075	29246.018121404823	5956.0341001608
5	90116	29254.90202098177	5962.9116748675
5	90146	29260.172212367343	5959.6782649992
5	90157	29262.482741116436	5957.0864287963
5	90242	29299.199040142739	5976.5797475484
5	90247	29299.616709463598	5974.1027533253
5	90252	29301.956096777671	5966.2567331212
5	90259	29306.340586500056	5965.2802017507
5	90323	29333.272917305276	5986.6477142311
5	90380	29349.136374509117	5999.9425081304
5	90389	29356.449085348626	6006.8335714642
5	90419	29364.35382158152	6014.5659933705
5	90434	29370.771339301706	6018.836079044
5	90461	29375.674024349397	6002.4246743514
5	90476	29379.491469776785	6000.5946836739
5	90569	29397.633466934189	6014.5392269546
5	90576	29401.959379053839	6015.6250877811
5	90584	29403.61945535278	6014.9406974496
5	90608	29411.129167627377	6021.5699606626
5	90615	29413.235989121398	6020.6718522723
5	90637	29421.571213561311	6024.8821098959
5	90648	29426.435481380759	6026.646386173
5	90657	29430.799004879997	6029.2228187912
5	90677	29436.028705933299	6031.8681535048
5	90689	29439.709089249308	6030.7120983536
5	90732	29453.072001159415	6027.2071199812
5	90737	29454.054943178145	6027.6024821878
5	90750	29459.60968606902	6031.570642413
5	90821	29482.127717591857	6053.9519802197
5	90829	29483.931368855248	6055.6920967568
5	90846	29490.758393402356	6060.8689238946
5	90925	29515.222109294452	6082.0236657835
5	90990	29532.139957391181	6095.1919053426
5	90997	29533.675191580778	6093.301386677
5	91004	29534.990710159435	6093.7764145009
5	91015	29538.077878272055	6096.6459267373
5	91022	29544.763157379898	6102.2775125841
5	91027	29550.322434473794	6102.9299740992
5	91034	29555.858478105164	6099.3106920701
5	91047	29562.011120814346	6099.3968194404
5	91073	29568.139984680061	6105.2392339473
5	91085	29574.514184393364	6109.9967819731
5	91100	29583.438706212593	6114.4813004848
5	91148	29600.907120414793	6123.7256709568
5	91161	29603.715730812592	6123.6478677399
5	91180	29607.729659078102	6124.1180389291
5	91196	29608.969161518669	6119.0992985894
5	91214	29614.192110945353	6116.9852084792
5	91247	29623.612245031445	6120.4885395034
5	91376	29658.246126296008	6149.1043626407
5	91384	29662.929145711031	6146.8898577964
5	91395	29663.980763033982	6145.8886762828
5	91406	29666.59642797958	6136.2819032034
5	91437	29670.092864212701	6133.7450341106
5	91449	29672.617200601528	6129.8874419638
5	91454	29674.4038026386	6119.9921894178
5	91469	29682.18736129849	6100.3949967426
5	91515	29697.703955270724	6115.4966402066
5	91549	29705.573575996717	6122.657215592
5	91554	29710.320603193077	6120.1485516925
5	91564	29711.96907792205	6120.9837687044
5	91576	29713.747696686753	6118.5279831454
5	91590	29717.655569023688	6120.8260999415
5	91595	29718.09241119689	6115.4596299299
5	91600	29720.893891680354	6110.7630704765
5	91608	29722.001041931136	6110.2671053849
5	91670	29742.388718168142	6127.4836512443
5	91676	29744.930986598321	6129.6845856523
5	91681	29746.11809718885	6127.4671152213
5	91688	29748.478290902213	6126.0547469054
5	91701	29750.712196559669	6115.0959370545
5	91710	29754.671308715335	6111.0710287053
5	91725	29760.166817428545	6114.349005325
5	91748	29769.662927727356	6117.9796386402
5	91830	29804.316484925549	6149.1570999228
5	91838	29807.329880172222	6141.256040093
5	91883	29818.446950001908	6140.5354195321
5	91888	29818.679302535013	6137.4631814478
5	91893	29819.296296080025	6137.5205030432
5	91903	29823.819948066174	6140.9738874831
5	91952	29836.93790299718	6151.598851574
5	92143	29897.485206903276	6206.0428780958
5	92149	29898.192054922149	6199.2640102158
5	92154	29899.50286747477	6199.347853613
5	92162	29902.968277335448	6191.3900144063
5	92175	29905.486723041883	6191.6287828389
5	92191	29909.550050172146	6195.3475770417
5	92215	29912.901941734559	6197.9628785358
5	92220	29913.457512043941	6187.4677948201
5	92230	29920.667263415085	6189.0536485016
5	92235	29922.303816907284	6173.7382949931
5	92243	29925.014645965492	6153.083331308
5	92254	29932.128435818089	6155.531311215
5	92259	29933.740234353122	6154.9862242059
5	92264	29935.281641966204	6150.1063693264
5	92277	29942.78218454153	6157.1117211685
5	92311	29949.942903133032	6161.1296169515
5	92316	29950.773160787125	6161.6716446248
5	92326	29953.213192239982	6159.9221894025
5	92339	29960.204386039165	6161.1014587728
5	92372	29973.423663794098	6173.0885558868
5	92399	29984.081652361153	6183.1266826658
5	92404	29984.415962905579	6168.2780593703
5	92409	29985.186191914717	6167.7978243731
5	92415	29988.530642950053	6168.397411481
5	92426	29991.531941643487	6151.4742644562

