version 2
run Third-n2-10-20191016-14:53:45-8820
attr configname Third-n2
attr datetime 20191016-14:53:45
attr experiment Third-n2
attr inifile omnetpp.ini
attr iterationvars ""
attr iterationvarsf ""
attr measurement ""
attr network org.omnetpp.queueing.Pizza
attr processid 8820
attr repetition 10
attr replication ""
attr resultdir results
attr runnumber 10
attr seedset 10
param **.PS.maxInventoriedPS 2
param **.U1.interArrivalTime exponential(4s)
param **.U2.interArrivalTime exponential(6s)
param **.PS.serviceTimeForInventoryU1 exponential(1.4s)
param **.PS.serviceTimeForInventoryU2 exponential(1.4s)
param **.PS.serviceTimeDirectU1 exponential(1.8s)
param **.PS.serviceTimeDirectU2 exponential(1.8s)
param **.PS.probabilityProducing 0.8
param **.CS.serviceTimeU1 exponential(2.3s)
param **.CS.serviceTimeU2 exponential(2.3s)

vector 0 Pizza.EntryQueueU1 queueLength:vector ETV
attr interpolationmode sample-hold
attr title "queue length, vector"
vector 1 Pizza.CS queueLength:vector ETV
attr interpolationmode sample-hold
attr title "queue length, vector"
vector 2 Pizza.EntryQueueU2 queueLength:vector ETV
attr interpolationmode sample-hold
attr title "queue length, vector"
vector 3 Pizza.sink lifeTime:vector ETV
attr interpolationmode none
attr title "lifetime of arrived jobs, vector"
attr unit s
vector 4 Pizza.sink lifeTimeU2:vector ETV
attr interpolationmode none
attr title "lifetime of arrived jobs, vector"
attr unit s
0	0	0	0
0	10	5.901737779903	1
0	13	6.920257362895	2
0	14	7.459240497746	1
0	20	7.803157592981	2
0	21	8.169147729608	1
0	29	8.543963959187	0
0	35	8.544193064941	1
0	37	9.486000124305	0
0	45	11.415528784953	1
0	46	12.825722631939	0
0	54	14.529311557518	1
0	55	14.624496001588	0
0	75	16.398721001239	1
0	76	16.553419651579	0
0	96	20.602551341964	1
0	97	20.929405195205	0
0	107	22.721107645478	1
0	109	23.241333506519	2
0	110	24.987133840577	1
0	115	25.330772588743	0
0	121	26.413965195543	1
0	126	29.801660536571	0
0	134	33.54888673696	1
0	136	34.27025710646	2
0	137	34.754980990505	1
0	142	34.980658236525	0
0	159	42.611918352983	1
0	163	44.373699706366	2
0	167	47.912198666888	3
0	169	48.559787332221	4
0	170	49.33833017057	3
0	176	49.717851065394	4
0	177	50.502385362852	3
0	183	51.574285183854	2
0	188	52.59063971081	1
0	195	53.673419603508	0
0	226	59.043096372489	1
0	227	60.272852953447	0
0	243	63.930715034388	1
0	244	64.064693384898	0
0	263	66.75489768191	1
0	264	67.453649785362	0
0	275	69.333333463244	1
0	277	70.99362498397	2
0	278	72.552877129698	1
0	292	81.23716473164	0
0	302	83.566224734739	1
0	306	85.673667882705	0
0	312	86.064672406601	1
0	314	87.479370345083	0
0	333	89.592441966637	1
0	336	91.56664747487	0
0	344	93.206541723594	1
0	347	95.841672412669	0
0	353	95.972980651591	1
0	355	96.752987572239	0
0	361	96.960520056074	1
0	362	97.012965442473	0
0	389	114.297771408887	1
0	390	114.618352467218	0
0	412	123.699193440152	1
0	415	127.006810345699	0
0	439	138.947770883618	1
0	440	140.181936618444	0
0	459	143.683014808657	1
0	462	146.989721198142	0
0	482	152.097914082183	1
0	487	153.501274991396	2
0	492	155.915268813456	3
0	494	156.236012494962	4
0	495	158.672828225059	3
0	502	159.495422749582	4
0	504	159.590266696536	5
0	505	159.683463743231	4
0	510	160.224454177093	3
0	519	164.56508379627	2
0	525	166.386589030624	1
0	531	166.87736002172	2
0	533	167.65190355694	3
0	537	168.356993882925	4
0	539	168.425700497771	5
0	541	171.072456518069	6
0	543	171.959210135723	7
0	546	174.034635802075	6
0	551	174.068544747883	5
0	556	174.977770270809	4
0	563	179.383057571735	3
0	569	179.400711524185	4
0	571	179.798486165131	5
0	574	181.731798502478	6
0	575	182.57926667675	5
0	580	183.109667776703	4
0	585	183.526568375548	3
0	589	183.598641185691	4
0	597	187.895904664438	3
0	605	189.210878892816	4
0	607	191.210547638844	5
0	608	191.429848991827	4
0	613	192.235038139922	3
0	619	193.410238831583	4
0	624	199.174643765092	3
0	629	200.203943544443	2
0	635	200.484018519893	3
0	639	200.665096483427	4
0	642	201.802489819641	5
0	644	205.403253889466	4
0	649	205.462107567466	3
0	655	206.298918992851	2
0	661	206.983627415198	1
0	666	207.685868741008	0
0	682	209.828819277385	1
0	684	211.111265012221	2
0	687	212.63605715352	1
0	693	213.224628760668	2
0	694	214.790983570128	1
0	699	214.981177535283	0
0	713	220.672125585527	1
0	717	222.100029066858	2
0	720	222.61668411953	1
0	726	223.839129435263	0
0	732	224.119680846844	1
0	737	228.05762469047	0
0	750	229.261593024508	1
0	751	229.521634395206	0
0	785	240.871764225862	1
0	788	244.970061038347	0
0	804	249.887793682141	1
0	806	251.054328803645	2
0	809	253.265578929282	1
0	814	253.630645823983	0
0	836	264.3402366956	1
0	843	266.536785984689	2
0	846	269.117405880119	1
0	851	270.313018416834	0
0	874	275.639777643246	1
0	879	278.520180247484	0
0	902	284.147321288785	1
0	903	285.752817701022	0
0	929	297.284000816005	1
0	931	297.454536254157	2
0	932	297.584165265949	1
0	939	299.288205820289	2
0	942	301.054338752665	3
0	948	306.005162096719	4
0	950	306.087728263108	5
0	951	306.105004883396	4
0	956	306.641139115928	3
0	963	308.447186096854	2
0	971	310.613360194054	1
0	976	310.977744847004	0
0	1022	329.310668392769	1
0	1025	330.915864323166	0
0	1043	338.927482347266	1
0	1047	342.722006498345	2
0	1048	344.277513009624	1
0	1058	347.462304870952	2
0	1060	348.0021544927	3
0	1064	348.56866281591	4
0	1067	349.647590623748	3
0	1076	351.648642566713	2
0	1085	355.039634877553	1
0	1091	355.312461084864	0
0	1109	358.09270682084	1
0	1110	358.470188763836	0
0	1119	360.682993406358	1
0	1120	361.323273607837	0
0	1131	365.416242377649	1
0	1135	365.568387610832	2
0	1137	367.955507483477	1
0	1144	368.162771940709	2
0	1147	370.146088246301	1
0	1154	371.038413406493	0
0	1172	375.441297262948	1
0	1174	375.519445548123	2
0	1177	375.96889766085	1
0	1183	376.74416342376	0
0	1191	377.187038345846	1
0	1194	379.31276704595	2
0	1196	380.480486817486	3
0	1197	380.759106131793	2
0	1205	384.170729858617	1
0	1212	386.444260243069	0
0	1218	386.813613093245	1
0	1223	390.041102906128	2
0	1225	391.038911894575	3
0	1226	391.653380938795	2
0	1231	393.594503202647	1
0	1237	393.929684400662	0
0	1261	397.254052084169	1
0	1263	397.639872290177	2
0	1267	398.112886109204	3
0	1271	399.093813868388	2
0	1277	400.634184134591	1
0	1283	408.145792882238	0
0	1293	410.210727643319	1
0	1295	411.628455137484	2
0	1300	414.639206250052	1
0	1308	417.526221025485	0
0	1328	422.181769614315	1
0	1336	426.36856513052	2
0	1339	430.434396150075	1
0	1346	432.323966771998	2
0	1347	432.919813618072	1
0	1355	434.767793991386	2
0	1358	435.211329897138	3
0	1359	437.13313411523	2
0	1367	438.069886359017	3
0	1369	438.238135471296	4
0	1371	438.245180286045	5
0	1376	438.68830060419	6
0	1377	440.447166590899	5
0	1384	441.199819562292	4
0	1390	442.58056111051	5
0	1394	444.619968154898	6
0	1396	446.033292091258	7
0	1397	447.393025710257	6
0	1403	448.04246262825	7
0	1404	448.429571047691	6
0	1409	448.828286133205	5
0	1413	449.332217257924	6
0	1416	452.087336724058	5
0	1420	452.268713091353	6
0	1428	459.354325595125	5
0	1433	459.60184703889	4
0	1437	459.963828002785	5
0	1443	460.807006293949	6
0	1444	460.883133666992	5
0	1450	461.67206620086	6
0	1452	466.587815268534	5
0	1458	468.491001152825	4
0	1464	470.213633215294	3
0	1471	470.888437458187	2
0	1480	472.429981609581	3
0	1481	473.742771833804	2
0	1486	475.050541244317	1
0	1491	478.878674574394	0
0	1513	483.039492756437	1
0	1515	483.937719437612	2
0	1516	484.470830139875	1
0	1524	491.956812590658	0
0	1533	492.621149479487	1
0	1543	499.250777100115	2
0	1547	499.792771757281	1
0	1552	500.040558689788	0
0	1564	501.299928414422	1
0	1569	503.48905595808	0
0	1586	508.74072766593	1
0	1588	509.046736106403	2
0	1590	509.067414853988	3
0	1591	509.843530479781	2
0	1598	510.597669979546	3
0	1600	511.350672895229	4
0	1602	512.376956403153	5
0	1603	512.537447117422	4
0	1609	516.38041564348	3
0	1614	516.821921943408	2
0	1620	517.112730947503	3
0	1624	517.718490601545	2
0	1631	518.419295062071	3
0	1635	520.041513432215	2
0	1641	520.474494265408	3
0	1643	520.823003898312	4
0	1645	520.844222117	5
0	1647	521.358637453146	6
0	1650	521.736588689181	7
0	1656	522.984465893361	8
0	1657	523.16281589193	7
0	1663	525.199464895482	6
0	1669	525.921798599414	7
0	1671	527.338565996411	6
0	1677	530.908554667891	5
0	1682	531.185004817088	4
0	1687	531.743815639279	3
0	1694	532.1986645096	4
0	1696	536.180486855721	3
0	1702	536.732314098054	2
0	1707	536.964240343457	1
0	1714	543.598266177536	2
0	1716	545.135111541901	1
0	1721	545.728613211326	0
0	1735	547.777148915135	1
0	1737	548.790438708212	0
0	1748	550.075926881572	1
0	1750	550.667463871502	2
0	1753	551.00300653378	3
0	1754	551.130288907404	2
0	1762	553.199525555084	3
0	1763	554.250312591419	2
0	1769	555.562047129252	1
0	1781	558.601824242123	0
0	1788	558.867144971029	1
0	1789	559.143962803258	0
0	1797	560.656023430622	1
0	1798	561.489550343098	0
0	1827	571.000200266601	1
0	1829	572.008757861412	2
0	1831	572.050880504913	3
0	1835	573.007599776377	4
0	1838	574.855883479946	3
0	1844	575.792605024665	2
0	1850	575.989926885687	3
0	1854	579.659473095237	2
0	1861	584.393133509054	1
0	1866	584.462492819505	0
0	1874	588.678096508585	1
0	1876	589.123795418849	2
0	1878	589.962524631505	3
0	1880	590.008477053416	4
0	1882	590.192843585531	5
0	1885	591.677226530947	6
0	1894	596.013823522784	7
0	1896	596.542096175892	8
0	1897	596.867175063497	7
0	1905	597.684069454315	6
0	1911	598.01446969454	7
0	1912	602.700442540521	6
0	1917	604.219262440915	5
0	1924	606.801999328541	4
0	1929	606.870241282663	3
0	1935	607.408117081287	4
0	1938	610.09134062231	3
0	1942	610.252358525791	4
0	1944	610.294095692963	5
0	1948	611.654662847646	6
0	1951	615.587702775106	5
0	1956	619.460698361312	4
0	1961	619.681986428126	3
0	1966	620.594077036504	2
0	1977	625.14249781668	3
0	1978	625.255798960472	2
0	1983	626.187342360278	1
0	1987	626.499654232373	2
0	1993	627.945641603456	3
0	1998	629.84737058474	4
0	2002	633.519556568919	5
0	2003	634.325181383585	4
0	2010	636.728491967466	3
0	2015	637.431361572062	2
0	2021	638.684930991004	3
0	2022	640.640502202581	2
0	2031	645.012566128579	3
0	2032	645.012729651608	2
0	2037	646.677464202096	1
0	2045	650.455334597376	2
0	2046	650.741193319063	1
0	2052	651.364043071797	0
0	2079	658.463272884356	1
0	2080	660.191190241549	0
0	2086	660.275262423441	1
0	2088	662.226213216103	2
0	2089	663.821881222748	1
0	2094	663.865238573488	0
0	2120	677.56961171875	1
0	2122	678.251224945255	2
0	2128	688.631480591839	3
0	2130	689.891598587964	4
0	2131	690.491169160667	3
0	2138	692.540773837964	2
0	2143	694.954948614618	1
0	2150	696.215107223992	0
0	2157	698.826598817717	1
0	2158	699.576792821953	0
0	2164	699.904208353467	1
0	2165	700.902274325275	0
0	2175	704.266771939216	1
0	2179	706.091673274915	2
0	2185	709.657156535563	3
0	2187	709.987040815551	4
0	2188	710.42916474803	3
0	2193	710.72335467393	2
0	2201	712.775839484528	3
0	2204	713.05802907233	4
0	2206	714.675195150808	3
0	2217	715.852025667002	4
0	2219	716.18683220021	5
0	2222	717.58474205329	4
0	2227	718.205359792007	3
0	2235	719.76402884183	4
0	2236	720.333574041393	3
0	2241	720.605097064445	2
0	2248	721.686877680629	1
0	2253	721.966757527784	0
0	2272	729.844060935337	1
0	2276	732.404660411769	2
0	2279	732.921676395956	1
0	2287	733.401342924181	2
0	2288	733.473343371306	1
0	2293	733.701714424764	0
0	2299	737.772018740722	1
0	2303	740.465416354859	0
0	2317	742.784322864005	1
0	2319	743.378640203634	2
0	2322	744.342965966092	1
0	2330	745.336654148907	2
0	2331	746.87219932127	1
0	2339	749.914938488569	2
0	2340	750.460365834502	1
0	2345	752.300728627586	0
0	2349	756.763266095147	1
0	2354	759.375852063252	0
0	2391	772.830472722509	1
0	2395	774.126305077514	2
0	2396	774.740058530271	1
0	2401	777.614366997423	0
0	2413	780.429425948566	1
0	2415	782.393146213269	0
0	2430	787.794632829987	1
0	2433	788.469499550216	0
0	2463	807.0757196008	1
0	2467	809.703436253802	0
0	2478	810.908383994879	1
0	2479	811.118063690261	0
0	2492	814.437191557465	1
0	2495	815.925431619742	2
0	2496	816.711983013543	1
0	2502	823.489232169075	0
0	2508	823.499782336101	1
0	2509	823.883244061968	0
0	2518	828.387711606432	1
0	2522	829.648819215885	2
0	2527	831.188098688177	1
0	2531	832.222345319415	2
0	2536	837.223044276327	1
0	2546	839.640061242261	2
0	2547	840.315197721818	1
0	2557	841.606848556699	0
0	2569	845.325683312928	1
0	2570	845.714113528774	0
0	2582	849.73485669718	1
0	2584	849.901126456284	2
0	2588	854.61712636309	1
0	2594	855.237483401959	0
0	2610	862.546195653918	1
0	2611	862.768199618832	0
0	2618	869.961887072475	1
0	2620	872.247997203525	2
0	2622	874.976975217084	3
0	2624	875.063767357713	4
0	2629	875.605146730756	3
0	2635	876.943207513423	4
0	2637	877.942454060757	3
0	2644	883.311328714078	4
0	2645	885.408804215746	3
0	2653	887.617890076896	4
0	2657	892.834605259066	3
0	2663	892.875005389415	4
0	2666	896.234385853209	3
0	2672	897.34088732491	2
0	2678	897.457724873806	3
0	2680	898.467019005088	2
0	2689	900.931264366955	1
0	2695	905.332452525005	0
0	2715	909.256015687202	1
0	2719	912.069912440705	0
0	2736	918.454153861957	1
0	2737	921.203568896276	0
0	2745	927.112088126819	1
0	2748	927.822152795974	0
0	2754	928.080811582483	1
0	2757	929.762175566485	0
0	2763	931.959956919534	1
0	2764	933.081958682137	0
0	2793	944.624826564271	1
0	2795	946.81348803933	2
0	2797	947.751703878429	3
0	2801	948.356090911033	4
0	2804	951.393303233702	3
0	2811	954.250282326612	2
0	2821	961.676815781301	1
0	2828	962.881820196424	0
0	2855	977.339355492455	1
0	2858	978.554943032155	0
0	2870	981.044202400606	1
0	2872	981.312193179079	2
0	2874	981.792592230224	3
0	2876	982.216291839392	4
0	2878	982.691351054378	5
0	2881	983.795198593572	4
0	2890	991.443692054671	3
0	2896	991.541288645378	4
0	2898	991.937313341306	5
0	2899	992.335676613023	4
0	2905	993.083860393203	5
0	2909	993.201761317238	6
0	2912	994.372635179794	5
0	2917	994.590678838906	4
0	2926	997.363587851807	3
0	2932	997.382192500955	4
0	2934	998.069946372987	5
0	2935	998.194745343196	4
0	2940	998.414424359599	3
0	2945	1000.241166318523	2
0	2954	1003.893310850119	1
0	2961	1004.799547871245	2
0	2965	1006.750151558335	3
0	2966	1007.117621102536	2
0	2973	1010.225732619785	3
0	2975	1014.935451598528	4
0	2976	1015.18847041939	3
0	2981	1015.59048891348	2
0	2987	1016.621932318543	1
0	2993	1017.220358620565	0
0	3001	1017.388726879001	1
0	3003	1017.621807925931	2
0	3006	1018.34364150065	3
0	3008	1018.416927036814	4
0	3012	1018.81704503379	5
0	3013	1019.336289260248	4
0	3018	1019.609888248275	3
0	3022	1020.52991245819	4
0	3026	1020.752968843141	5
0	3027	1021.241553117436	4
0	3034	1029.951924703009	3
0	3042	1032.840753925156	4
0	3044	1033.455596346968	5
0	3045	1035.300634986921	4
0	3052	1036.796939027115	5
0	3053	1037.29516613656	4
0	3059	1040.110943418828	5
0	3060	1040.308705486991	4
0	3068	1042.72331332705	3
0	3074	1042.832385251483	4
0	3076	1043.514773182477	5
0	3080	1043.85798192514	4
0	3086	1044.413160831718	3
0	3093	1045.933541008583	2
0	3099	1046.192881452691	3
0	3104	1046.774549127506	4
0	3105	1046.971111492278	3
0	3113	1048.20996575764	2
0	3119	1048.610769287792	3
0	3121	1049.95836374347	4
0	3123	1049.95881616924	5
0	3124	1052.422939992207	4
0	3132	1054.846932251789	5
0	3134	1055.429999676197	6
0	3137	1059.03630924953	5
0	3145	1061.621981747906	4
0	3152	1062.844893396088	3
0	3157	1063.53113151042	2
0	3163	1063.704313211996	3
0	3165	1064.839365004061	2
0	3170	1066.85783985616	1
0	3179	1071.311802054134	0
0	3185	1072.145458289382	1
0	3189	1072.417035187376	0
0	3195	1074.623058816683	1
0	3196	1076.494272711686	0
0	3202	1081.882658147195	1
0	3203	1082.650355200832	0
0	3217	1085.824027987221	1
0	3221	1088.73268185792	2
0	3227	1090.493131758867	3
0	3229	1092.977296626485	4
0	3230	1095.200925905888	3
0	3235	1096.819867089083	2
0	3243	1101.714077471472	3
0	3245	1101.789584562846	4
0	3248	1103.784589741984	3
0	3253	1104.549038106647	2
0	3259	1107.494848603895	3
0	3265	1113.475916555398	4
0	3268	1115.901099404078	3
0	3273	1116.929439101837	2
0	3285	1124.713149646938	3
0	3290	1128.581641997238	2
0	3297	1129.093383637927	1
0	3303	1129.384360266071	2
0	3305	1129.937339523394	3
0	3306	1132.362378475009	2
0	3312	1135.108503542741	3
0	3316	1137.380065281322	4
0	3318	1139.219624779845	5
0	3320	1139.906455509931	6
0	3321	1143.663414540278	5
0	3327	1145.291230073121	6
0	3329	1146.353385783703	5
0	3335	1146.905046445179	4
0	3341	1147.05531054901	5
0	3343	1151.387076185271	4
0	3351	1152.648540457841	5
0	3353	1153.324946426284	6
0	3354	1154.678548540917	5
0	3360	1155.701033489786	6
0	3361	1156.556844642515	5
0	3366	1157.507771081025	4
0	3371	1160.550598565951	3
0	3379	1164.744691662469	4
0	3380	1164.775933359004	3
0	3388	1165.473549832364	4
0	3389	1165.91811895473	3
0	3397	1167.755053334105	4
0	3398	1167.861844541148	3
0	3403	1169.49251673579	2
0	3408	1170.436661579291	1
0	3414	1171.243878907791	2
0	3416	1172.976972104992	3
0	3420	1176.456767894954	4
0	3422	1177.277042435318	3
0	3429	1177.577857206921	4
0	3432	1180.072805533043	5
0	3434	1181.692917009305	6
0	3436	1182.291585816712	7
0	3437	1182.928464602825	6
0	3442	1184.488466755591	5
0	3447	1184.563000951599	4
0	3454	1189.102369322703	5
0	3459	1192.687712535282	6
0	3460	1193.925813140792	5
0	3466	1194.771760449479	4
0	3472	1194.992540251804	3
0	3482	1198.478079390084	2
0	3491	1201.63115343012	3
0	3492	1206.220402132005	2
0	3497	1206.256388988866	1
0	3502	1207.789992865617	0
0	3508	1208.827912496327	1
0	3510	1210.316098360063	2
0	3512	1210.459851582246	3
0	3515	1211.569473290326	2
0	3520	1212.796988385526	1
0	3529	1215.962820655429	2
0	3530	1217.825496866948	1
0	3536	1218.194317994519	2
0	3537	1219.927733369286	1
0	3543	1220.907148164106	2
0	3545	1221.79841614757	3
0	3550	1230.308631331486	2
0	3554	1231.924897498788	3
0	3559	1236.519331292267	2
0	3563	1237.942509270958	3
0	3565	1238.439155075758	4
0	3567	1238.678435967027	5
0	3575	1241.162272047561	6
0	3576	1241.517126590796	5
0	3580	1243.068977508509	6
0	3582	1244.405473570253	7
0	3585	1246.277513372506	6
0	3591	1246.928196029519	7
0	3592	1248.150693058174	6
0	3599	1250.705579907352	5
0	3604	1254.862618799632	4
0	3612	1258.133222307675	5
0	3613	1258.713849512284	4
0	3618	1259.610490804082	3
0	3623	1260.327566806739	2
0	3627	1261.803938901479	3
0	3632	1266.26143039526	2
0	3638	1267.432827884446	3
0	3640	1269.785669453192	2
0	3647	1274.017207052697	1
0	3658	1276.861576969004	0
0	3676	1281.396505796074	1
0	3677	1282.36232908343	0
0	3699	1297.232408617278	1
0	3701	1298.990863000635	2
0	3703	1303.874481899636	3
0	3705	1304.513164217175	4
0	3709	1305.892504855053	5
0	3711	1308.504131477521	6
0	3717	1309.107087354846	7
0	3725	1310.881705241853	8
0	3726	1311.055324519908	7
0	3735	1311.879641550818	8
0	3738	1312.752820219996	7
0	3743	1313.252138177924	6
0	3748	1314.965175971925	5
0	3753	1317.913595175551	4
0	3760	1319.057207771945	3
0	3765	1322.097260605031	2
0	3774	1324.442027190341	3
0	3775	1324.543280651904	2
0	3782	1328.003680570501	1
0	3787	1328.249280241845	0
0	3832	1341.334220560191	1
0	3834	1341.848239459889	2
0	3836	1341.968887941416	3
0	3838	1344.288298323198	4
0	3844	1346.1357605689	5
0	3847	1351.153332268239	4
0	3854	1354.329154364496	5
0	3859	1354.629596343718	4
0	3865	1357.953741260734	3
0	3875	1360.81805196015	2
0	3881	1361.911821317773	3
0	3884	1364.026331186443	4
0	3886	1368.374639792098	5
0	3889	1371.087025481207	4
0	3896	1373.402756628069	5
0	3898	1374.113071022693	6
0	3902	1374.689876604281	7
0	3903	1374.911271327799	6
0	3908	1375.498942704179	5
0	3913	1376.447341053964	4
0	3919	1377.989111856406	3
0	3924	1378.241011169883	2
0	3929	1379.977081357795	1
0	3937	1386.014506972828	2
0	3941	1388.567609448297	1
0	3946	1388.781527276373	0
0	3990	1402.427044030158	1
0	3991	1404.141012205401	0
0	3999	1406.112127937169	1
0	4003	1407.220278574503	2
0	4006	1409.125210653134	1
0	4012	1410.599043906529	0
0	4018	1411.133978726311	1
0	4020	1411.637909706913	0
0	4032	1412.597131766927	1
0	4033	1415.586283758736	0
0	4045	1417.28699093043	1
0	4047	1418.203647643292	2
0	4048	1419.274511884199	1
0	4055	1421.804723232215	2
0	4058	1424.076167308845	1
0	4064	1425.922788185219	0
0	4082	1429.780738307434	1
0	4085	1431.716981920579	0
0	4094	1433.056094928671	1
0	4098	1435.885508195265	2
0	4100	1437.984791067368	1
0	4105	1438.013754222569	0
0	4114	1440.560968784044	1
0	4116	1441.729928748999	2
0	4118	1443.405785400906	3
0	4122	1444.288015292705	2
0	4127	1444.891328841165	1
0	4133	1447.431746998729	0
0	4149	1453.332996314353	1
0	4152	1453.77106655317	0
0	4177	1459.659823469206	1
0	4182	1462.291636645051	0
0	4190	1463.635717420291	1
0	4194	1467.237822256077	2
0	4195	1470.45748956476	1
0	4200	1471.135538926015	0
0	4226	1475.885741055706	1
0	4227	1476.539134646818	0
0	4240	1481.323469572978	1
0	4244	1484.185212979386	2
0	4245	1484.642778126719	1
0	4250	1486.214839383018	0
0	4271	1493.636436282772	1
0	4278	1496.807374206913	2
0	4280	1497.248756803718	1
0	4290	1501.984144672153	0
0	4302	1505.51815967925	1
0	4304	1507.085526329708	0
0	4330	1515.149120519652	1
0	4334	1515.996390666489	2
0	4335	1516.448181594739	1
0	4342	1518.624863648755	2
0	4344	1518.92404968203	3
0	4346	1522.969404174771	4
0	4348	1523.05532142902	5
0	4349	1523.362651623554	4
0	4355	1524.551559838064	3
0	4360	1524.655860752363	2
0	4365	1527.013393984787	1
0	4370	1528.085066190591	0
0	4379	1531.235071184426	1
0	4383	1531.423120690805	2
0	4387	1532.280240977134	1
0	4393	1533.235243761542	0
0	4415	1546.133543775981	1
0	4418	1547.73823995242	0
0	4448	1559.895058877323	1
0	4452	1562.147170697953	0
0	4458	1562.866204714035	1
0	4462	1567.330459882694	2
0	4464	1568.486067843263	3
0	4465	1572.916095059014	2
0	4471	1572.931188130214	3
0	4475	1574.276649129674	4
0	4478	1577.892320426051	3
0	4483	1579.030968841291	2
0	4487	1579.057853724553	3
0	4489	1580.403750503096	4
0	4491	1580.842042830946	5
0	4493	1581.711975982156	6
0	4495	1582.094269108214	7
0	4502	1585.86792004451	6
0	4508	1586.486449512647	7
0	4513	1589.887271667685	8
0	4514	1590.179343353966	7
0	4520	1590.834831210287	8
0	4522	1591.568245400813	7
0	4527	1593.107030664051	6
0	4533	1593.211482978444	7
0	4536	1594.141322482754	6
0	4542	1596.391903867929	5
0	4547	1597.181589975997	4
0	4553	1598.544277856251	3
0	4561	1600.701818024642	4
0	4562	1601.917067700858	3
0	4568	1603.54003192312	4
0	4571	1606.242618661079	5
0	4576	1609.949252260526	4
0	4582	1613.937469523748	3
0	4587	1615.180595248254	2
0	4596	1618.451238352335	1
0	4602	1618.569761059236	2
0	4607	1620.859488477228	3
0	4608	1621.9956812915	2
0	4613	1622.971136058648	1
0	4618	1623.237150079564	0
0	4622	1624.049276123343	1
0	4628	1626.462613197704	0
0	4659	1630.895417343117	1
0	4665	1633.253261005371	0
0	4696	1639.532762637455	1
0	4701	1641.715160330554	2
0	4702	1642.054301581056	1
0	4707	1642.404838597258	0
0	4722	1645.049453824153	1
0	4723	1645.545870266147	0
0	4772	1661.766171766798	1
0	4781	1666.314983356529	0
0	4798	1668.184740073505	1
0	4800	1669.933287257275	0
0	4814	1672.410564035076	1
0	4815	1672.840427453525	0
0	4829	1678.734838873066	1
0	4831	1680.116651716038	2
0	4834	1682.984843887819	1
0	4840	1683.152741878414	2
0	4841	1683.935573321224	1
0	4848	1685.589285481667	0
0	4856	1689.257246169959	1
0	4857	1690.364132837739	0
0	4878	1697.7611875691	1
0	4879	1700.285014156062	0
0	4895	1705.929741832941	1
0	4896	1706.206624101965	0
0	4913	1716.99246593296	1
0	4914	1718.474535179086	0
0	4930	1732.066561223898	1
0	4933	1736.874174890488	0
0	4946	1739.970735003348	1
0	4950	1740.57903261066	2
0	4953	1741.589834164587	1
0	4960	1742.652509760908	0
0	4971	1745.026870155207	1
0	4972	1745.060005837443	0
0	5017	1767.007256374402	1
0	5023	1772.214699324046	2
0	5025	1772.945223745843	3
0	5027	1773.019611361866	4
0	5030	1776.312956823031	3
0	5035	1776.443627704745	2
0	5040	1777.052506892573	1
0	5044	1777.579473634945	2
0	5047	1780.155519602033	1
0	5054	1782.481402109397	0
0	5060	1782.700392134105	1
0	5062	1783.512480044727	2
0	5067	1787.584946563776	3
0	5068	1789.398209122354	2
0	5073	1789.437586684599	1
0	5079	1790.256677030255	0
0	5085	1790.480428551067	1
0	5087	1795.777328642759	0
0	5093	1798.064210030391	1
0	5094	1799.342951734836	0
0	5098	1801.051334065466	1
0	5104	1805.794789282187	2
0	5106	1806.885205255773	3
0	5107	1808.213792678654	2
0	5114	1811.032420173344	3
0	5115	1812.477338987406	2
0	5122	1818.469643024946	3
0	5124	1821.116768920676	4
0	5126	1822.491715327388	5
0	5128	1825.852672373452	6
0	5130	1831.63403454347	7
0	5132	1831.844755177578	8
0	5133	1831.897760270142	7
0	5141	1833.502109009236	6
0	5146	1834.88561258552	5
0	5153	1837.910836234481	4
0	5162	1839.095263062476	5
0	5163	1839.621447117514	4
0	5169	1839.984881163943	3
0	5174	1840.784854776942	2
0	5180	1841.120145299489	3
0	5184	1841.676314177467	4
0	5186	1842.834459169637	3
0	5193	1845.089687704368	2
0	5198	1845.274337715182	1
0	5202	1845.640293425904	2
0	5212	1849.918311662494	3
0	5214	1850.62963629897	4
0	5217	1853.439666701673	3
0	5226	1860.257342157586	2
0	5231	1860.331433282227	1
0	5240	1864.100054592499	0
0	5247	1864.523174287242	1
0	5249	1864.759198874025	2
0	5250	1866.405890436331	1
0	5255	1867.292032482378	0
0	5270	1873.711305847664	1
0	5276	1877.980742049833	0
0	5283	1878.947936333717	1
0	5284	1879.719130048489	0
0	5298	1882.677412089435	1
0	5302	1883.864345312072	2
0	5303	1884.671465286433	1
0	5308	1884.867313222858	0
0	5314	1885.039336882665	1
0	5315	1885.875917178163	0
0	5336	1895.016671530988	1
0	5338	1895.871924832893	2
0	5340	1895.925309271871	3
0	5351	1898.535917814442	4
0	5352	1898.959754933474	3
0	5358	1900.104791480463	4
0	5361	1901.024195987741	3
0	5369	1903.93916363022	4
0	5372	1906.667378869493	5
0	5373	1906.720995679568	4
0	5378	1907.940585714346	3
0	5384	1909.868513321865	4
0	5385	1910.316018880948	3
0	5390	1911.296002750992	2
0	5399	1919.227026372778	1
0	5407	1923.043319895182	0
0	5413	1924.078738176587	1
0	5415	1926.826952810499	0
0	5422	1929.275361490273	1
0	5425	1930.922016351586	0
0	5438	1933.16817073706	1
0	5444	1933.900553483465	2
0	5446	1934.931643084565	1
0	5453	1936.181330341856	0
0	5467	1937.754587586209	1
0	5469	1938.562228475276	2
0	5470	1938.728942956813	1
0	5476	1939.788950783582	0
0	5494	1943.289779870077	1
0	5498	1945.317002130408	2
0	5499	1946.426901566303	1
0	5505	1949.041106231053	0
0	5542	1963.091518742783	1
0	5543	1963.608063104605	0
0	5554	1965.264541593223	1
0	5556	1966.637003570265	0
0	5571	1973.110702808237	1
0	5573	1979.257816978217	2
0	5576	1982.899357233013	1
0	5582	1983.848021641809	0
0	5600	1990.714430853064	1
0	5602	1991.694032949453	2
0	5603	1992.634450620617	1
0	5608	1992.641487891035	0
0	5616	1993.059431902772	1
0	5617	1993.499583012383	0
0	5628	1996.872141353138	1
0	5630	1997.75363603606	2
0	5631	1997.882530098857	1
0	5637	2001.929990235442	2
0	5638	2002.296650191823	1
0	5644	2003.236888889548	2
0	5645	2003.580402437592	1
0	5649	2006.250235030421	2
0	5653	2007.343765355786	1
0	5660	2007.530902574293	2
0	5662	2009.976259656046	3
0	5668	2013.308883134428	4
0	5672	2016.403845790512	5
0	5675	2017.697086569944	4
0	5682	2018.253149815516	5
0	5684	2018.553773459475	6
0	5685	2019.382849614743	5
0	5691	2019.856177034691	6
0	5693	2021.813320260979	5
0	5698	2022.049463920579	4
0	5704	2022.878159828292	3
0	5710	2024.703822227203	2
0	5718	2026.130995092519	3
0	5719	2026.641926629056	2
0	5723	2026.820268455328	3
0	5727	2029.051722098889	4
0	5728	2029.355940387969	3
0	5733	2034.585188065551	2
0	5739	2036.272208586664	3
0	5743	2037.182831320884	4
0	5746	2038.17342802717	3
0	5753	2039.878135733434	4
0	5754	2040.502000910008	3
0	5762	2042.124927201944	2
0	5768	2042.864175793881	3
0	5774	2044.465531955213	4
0	5775	2044.856146840422	3
0	5781	2045.291302744825	4
0	5782	2045.415135362521	3
0	5787	2045.734226822723	2
0	5792	2046.716714495942	1
0	5798	2047.9315199956	0
0	5819	2050.071785986534	1
0	5822	2053.423039379358	0
0	5828	2053.552541313593	1
0	5833	2055.176076796368	0
0	5847	2055.857904505535	1
0	5848	2055.96941497959	0
0	5859	2057.449407791516	1
0	5860	2057.486192218171	0
0	5870	2059.328703451674	1
0	5871	2059.94406137236	0
0	5880	2062.396086160241	1
0	5882	2064.60686702153	2
0	5884	2064.84041355596	3
0	5886	2065.04315870012	4
0	5891	2067.09947557296	3
0	5897	2067.469340834211	2
0	5902	2067.983970073138	1
0	5907	2069.080808882564	0
0	5928	2076.836507948972	1
0	5933	2080.387361156062	0
0	5944	2081.53712806397	1
0	5949	2085.113717879909	2
0	5952	2088.325059332668	1
0	5957	2088.797237744119	0
0	5982	2095.433784658372	1
0	5984	2095.471590022999	2
0	5986	2095.545507004726	3
0	5990	2098.588663017893	4
0	5991	2100.064098355811	3
0	5997	2104.480542079445	2
0	6002	2104.919408453202	1
0	6010	2106.202140060349	2
0	6012	2106.531377250383	3
0	6013	2106.780586238148	2
0	6018	2108.858260742251	1
0	6023	2108.959837392801	0
0	6039	2114.459496845225	1
0	6041	2115.917276507476	2
0	6042	2116.886096733536	1
0	6048	2119.147750254837	0
0	6081	2128.983204242866	1
0	6086	2132.459729793769	0
0	6097	2133.668130542905	1
0	6099	2134.648174818708	2
0	6100	2136.077743564799	1
0	6105	2136.698969287339	0
0	6116	2140.545442699803	1
0	6118	2141.0371366066	0
0	6131	2145.11569351427	1
0	6133	2145.394134466257	2
0	6135	2145.589032796082	3
0	6137	2146.776336388489	4
0	6140	2147.090199341762	3
0	6146	2147.373839277276	2
0	6155	2149.804411237585	1
0	6161	2150.693058606523	2
0	6162	2151.04108119887	1
0	6167	2152.286987217146	0
0	6191	2165.287249214875	1
0	6193	2166.120214368133	2
0	6194	2166.70556519011	1
0	6201	2168.087146812884	2
0	6202	2168.114919868446	1
0	6207	2169.001412593712	0
0	6213	2169.359207260397	1
0	6223	2178.113929367554	0
0	6237	2179.556229928292	1
0	6241	2182.201181835273	0
0	6247	2182.596879750054	1
0	6249	2182.997741731153	2
0	6251	2183.848224056399	1
0	6256	2184.125027086855	0
0	6263	2184.757824025002	1
0	6267	2188.132907297126	0
0	6277	2193.219502259383	1
0	6280	2195.942208925304	0
0	6292	2200.191148054249	1
0	6293	2200.441928618903	0
0	6302	2201.280111006589	1
0	6307	2204.21204185514	2
0	6308	2205.565240582251	1
0	6314	2205.775486089429	2
0	6315	2206.242995050955	1
0	6321	2206.843273674932	0
0	6334	2208.402314231782	1
0	6335	2208.743228330984	0
0	6342	2210.723313521893	1
0	6343	2211.029106076703	0
0	6350	2211.95264654783	1
0	6352	2213.325604455268	2
0	6354	2213.326698299757	3
0	6356	2214.216314205421	2
0	6361	2215.015311637518	1
0	6369	2218.237559581739	2
0	6371	2224.065401537154	3
0	6372	2226.471506346729	2
0	6379	2229.422598956849	1
0	6386	2231.153645147306	2
0	6387	2232.517401094913	1
0	6393	2233.833124283045	0
0	6405	2234.938916215208	1
0	6407	2236.997144099662	2
0	6409	2237.887843884491	3
0	6410	2238.495486612211	2
0	6416	2239.600770627538	1
0	6421	2240.156340691667	0
0	6443	2248.508009117776	1
0	6445	2248.521218687284	2
0	6450	2249.776457725642	1
0	6456	2250.139597632711	2
0	6457	2250.415234882576	1
0	6463	2251.77863580128	0
0	6495	2261.348718300358	1
0	6499	2261.788298109788	2
0	6500	2262.321966999527	1
0	6509	2263.072002368856	2
0	6510	2263.548902374617	1
0	6517	2264.62767989572	2
0	6519	2265.543054583845	3
0	6524	2267.740376685724	2
0	6530	2268.405719153055	3
0	6533	2269.647811043458	4
0	6535	2269.926219113236	5
0	6536	2270.035366111687	4
0	6542	2273.172339220197	3
0	6547	2273.719128232358	2
0	6552	2274.007366134086	1
0	6558	2279.398314933552	2
0	6560	2279.552126601606	3
0	6568	2286.102056719586	2
0	6573	2286.910815467617	1
0	6579	2287.722757624603	0
0	6585	2287.954198212541	1
0	6587	2289.498372188048	0
0	6591	2290.009974889622	1
0	6596	2291.543478489925	2
0	6597	2291.57080514011	1
0	6604	2292.260313667042	2
0	6607	2292.524681873983	3
0	6611	2293.592486325005	4
0	6616	2297.137388681665	3
0	6622	2298.819704513116	2
0	6629	2300.076308139027	3
0	6630	2300.393308009153	2
0	6637	2301.911252297129	1
0	6643	2302.325092005866	2
0	6644	2302.605647401934	1
0	6649	2305.099745898312	0
0	6653	2306.18620259289	1
0	6657	2307.515821499362	2
0	6659	2307.546297485101	3
0	6669	2310.820417648089	4
0	6670	2313.075297658289	3
0	6676	2314.126215708091	2
0	6683	2314.436670332077	3
0	6685	2315.436777175266	4
0	6687	2316.67485346675	5
0	6690	2321.7921842896	4
0	6696	2323.182851351283	3
0	6701	2323.345111844578	2
0	6708	2326.241088238139	1
0	6715	2327.460816851589	2
0	6718	2328.95538489457	1
0	6723	2329.0585628199	0
0	6748	2335.291644873562	1
0	6751	2336.377453464365	0
0	6769	2342.194026498074	1
0	6770	2342.391816887002	0
0	6784	2345.931037841558	1
0	6785	2346.371309762653	0
0	6795	2349.138462467306	1
0	6798	2354.779948715204	0
0	6812	2362.077362617338	1
0	6814	2363.850952314963	2
0	6819	2368.129902367144	1
0	6824	2368.311771805689	0
0	6830	2369.206182875429	1
0	6834	2371.615063072203	0
0	6841	2372.265134014024	1
0	6843	2373.637430382946	0
0	6855	2375.457134116877	1
0	6859	2376.335106684405	2
0	6862	2377.829717879441	1
0	6868	2377.845466485292	2
0	6869	2378.370453214765	1
0	6875	2378.747767302351	2
0	6879	2381.153203584962	1
0	6884	2381.639970880404	0
0	6890	2382.068233831399	1
0	6894	2385.87394325073	0
0	6928	2391.019539355542	1
0	6934	2392.995570358769	0
0	6965	2406.856103046648	1
0	6966	2408.279334489622	0
0	6973	2409.436943310644	1
0	6975	2410.987708891781	2
0	6976	2412.864828953106	1
0	6984	2414.817165376446	0
0	6997	2415.890745755592	1
0	6999	2417.005539647525	0
0	7009	2418.627133765416	1
0	7013	2420.431176431659	2
0	7015	2421.457341150496	3
0	7016	2421.629277878558	2
0	7023	2424.531432222331	1
0	7031	2433.84640629184	2
0	7032	2433.848688691621	1
0	7037	2434.052019042658	0
0	7054	2438.852257651753	1
0	7057	2441.20115729265	0
0	7065	2443.119776278841	1
0	7067	2444.485587803035	0
0	7074	2445.499211001892	1
0	7076	2447.218150904919	2
0	7077	2449.355158227309	1
0	7083	2450.604023626391	0
0	7099	2454.380525679163	1
0	7100	2455.430416310108	0
0	7112	2457.872069153086	1
0	7113	2459.100505149305	0
0	7119	2459.652890966348	1
0	7121	2460.240334119126	2
0	7123	2460.749797807331	3
0	7125	2461.790945834956	4
0	7129	2463.33081827013	5
0	7131	2465.545516069558	4
0	7136	2466.946820286833	3
0	7144	2472.09788075783	4
0	7146	2472.119968332985	5
0	7147	2475.669664293422	4
0	7153	2478.318839116068	3
0	7160	2479.074341652749	4
0	7164	2485.027564178764	5
0	7166	2486.302875103541	6
0	7168	2487.226940278352	7
0	7169	2487.239681400996	6
0	7174	2488.188158261968	5
0	7180	2489.737869358731	6
0	7181	2490.207297909212	5
0	7185	2490.336751063128	6
0	7193	2492.660434676274	5
0	7200	2494.523234463904	4
0	7206	2494.733941000485	5
0	7208	2495.020468692128	6
0	7210	2497.567978363247	5
0	7218	2499.888433193376	4
0	7224	2501.24115412861	3
0	7229	2502.389554609716	2
0	7235	2502.407807999694	3
0	7238	2504.260153574212	4
0	7239	2505.621807747827	3
0	7246	2506.425187938398	2
0	7255	2508.401400596156	3
0	7264	2511.502585237136	2
0	7271	2512.157880711224	3
0	7272	2512.71173334689	2
0	7277	2513.793375538861	1
0	7283	2515.097186287336	0
0	7289	2516.567591486065	1
0	7291	2516.682689764326	2
0	7293	2516.946545992108	3
0	7298	2517.453075164012	2
0	7302	2518.448008614972	3
0	7304	2519.487855086263	4
0	7310	2521.191116520688	3
0	7317	2522.590407350711	2
0	7323	2526.808994579926	1
0	7328	2527.316057411292	0
0	7341	2529.622463114569	1
0	7342	2532.038697806185	0
0	7362	2537.632384619763	1
0	7363	2537.89306682617	0
0	7370	2539.729314451247	1
0	7374	2542.184274957568	2
0	7375	2544.473167752171	1
0	7382	2547.003106887743	2
0	7384	2547.017854537731	3
0	7386	2547.233612187847	4
0	7389	2550.223052227952	3
0	7397	2552.033619518936	4
0	7398	2553.762174186591	3
0	7406	2555.011819162454	2
0	7414	2556.176480571997	3
0	7415	2557.058650672624	2
0	7423	2558.182007393657	1
0	7432	2561.234213372422	2
0	7433	2561.344463907843	1
0	7438	2563.410360659746	0
0	7479	2580.412275018855	1
0	7487	2583.425881065966	2
0	7488	2586.985765650454	1
0	7498	2591.138466185399	2
0	7500	2591.573320933619	3
0	7502	2591.619519457895	4
0	7505	2594.385019948304	3
0	7513	2597.436442138138	4
0	7515	2597.709552710391	5
0	7516	2598.193985122482	4
0	7525	2600.854463383877	5
0	7526	2601.353231429889	4
0	7531	2602.935870068245	3
0	7537	2604.096585914295	2
0	7545	2607.590768502366	1
0	7551	2607.654251976611	2
0	7556	2613.503180036421	1
0	7562	2613.792419087427	2
0	7565	2614.554001617085	3
0	7568	2615.156022145484	2
0	7573	2616.421266600844	1
0	7578	2617.444370630441	0
0	7596	2623.740078217902	1
0	7599	2627.808849082056	0
0	7605	2627.876303396717	1
0	7609	2628.05696741695	2
0	7612	2631.572657322967	1
0	7622	2632.244671013467	2
0	7624	2633.382219363337	1
0	7635	2636.368833511227	2
0	7637	2636.505823615348	3
0	7638	2637.32092627134	2
0	7643	2637.665571500727	1
0	7650	2641.41309181622	2
0	7653	2642.406997466116	3
0	7655	2642.448937965902	4
0	7657	2642.771038303179	3
0	7663	2643.978953759926	2
0	7671	2644.757268856283	3
0	7672	2646.605623242868	2
0	7681	2648.064159708239	1
0	7687	2653.972486157396	0
0	7698	2656.767785504988	1
0	7700	2658.5521596342	2
0	7703	2660.953959042079	1
0	7709	2661.117521341002	2
0	7715	2663.183569578522	1
0	7721	2664.802744668488	0
0	7740	2669.881272207291	1
0	7746	2671.545220269061	2
0	7748	2674.038909103144	3
0	7750	2674.862561219731	4
0	7757	2677.302598374846	3
0	7761	2677.770909830898	4
0	7763	2679.759977082737	5
0	7765	2680.166389692972	6
0	7767	2681.994199141171	7
0	7772	2685.016447132233	8
0	7775	2689.854199080213	7
0	7782	2691.129367525321	6
0	7788	2692.848675300094	5
0	7794	2693.066590171252	6
0	7797	2693.661255380974	7
0	7799	2694.038114204992	8
0	7801	2695.171301596615	7
0	7806	2695.18165845978	6
0	7811	2695.326387523798	5
0	7818	2699.291314335556	4
0	7822	2700.041143930927	5
0	7826	2700.630610338882	6
0	7830	2703.952373464515	7
0	7833	2707.515112823626	6
0	7839	2708.218958751834	5
0	7847	2711.452835887835	4
0	7853	2712.858866196288	5
0	7855	2713.000758400144	6
0	7856	2713.217869337357	5
0	7862	2714.026323527836	6
0	7863	2717.938720357257	5
0	7868	2719.193917007334	4
0	7876	2720.66095393875	3
0	7881	2720.959243861527	2
0	7891	2722.904537210352	3
0	7892	2722.940248666957	2
0	7897	2722.988939159335	1
0	7904	2726.553788022066	0
0	7924	2730.280908819606	1
0	7927	2731.470063311366	0
0	7934	2732.110332403668	1
0	7937	2738.786527909252	2
0	7938	2739.210878678032	1
0	7944	2739.282576253812	0
0	7965	2743.612813977361	1
0	7968	2748.378600692523	0
0	7974	2748.654451513294	1
0	7977	2749.852300068284	2
0	7979	2750.415388029683	3
0	7980	2751.940686454	2
0	7985	2752.295432725539	1
0	7994	2753.482789528127	2
0	7996	2753.683800127358	3
0	7997	2754.265036711119	2
0	8005	2757.207920171999	3
0	8006	2759.813947810142	2
0	8015	2760.24180339715	3
0	8016	2761.346670719558	2
0	8022	2762.96825311705	3
0	8023	2764.085304457106	2
0	8028	2765.750780769948	1
0	8033	2766.285528865789	0
0	8037	2767.192091055004	1
0	8046	2771.096938420437	2
0	8050	2774.177830848697	3
0	8054	2775.254688519967	4
0	8056	2775.574958910671	5
0	8058	2776.733559590069	6
0	8059	2776.862843814182	5
0	8064	2778.381998239705	4
0	8069	2778.400027635799	3
0	8075	2779.701839422729	2
0	8080	2779.8846716084	1
0	8087	2784.732681328203	0
0	8107	2792.962731912426	1
0	8109	2797.928939261094	2
0	8113	2801.142979927461	3
0	8117	2802.824778891074	4
0	8120	2804.544747511964	3
0	8126	2806.230209603571	2
0	8132	2807.085960052335	1
0	8136	2808.968172529908	2
0	8139	2810.557203036259	1
0	8144	2817.596304992137	0
0	8163	2822.509243272227	1
0	8170	2826.926647778972	0
0	8179	2828.133103255301	1
0	8182	2829.757153204133	0
0	8189	2834.35080169637	1
0	8190	2834.86647398025	0
0	8201	2835.887351855071	1
0	8202	2837.477791761381	0
0	8208	2838.150767224032	1
0	8212	2839.61720454743	2
0	8214	2840.039137927793	3
0	8216	2840.362968166683	4
0	8218	2841.372798287957	5
0	8219	2841.658615444312	4
0	8225	2842.406231371308	3
0	8230	2842.488970089054	2
0	8235	2846.894278397283	1
0	8241	2847.816848460582	0
0	8248	2848.970043998485	1
0	8249	2848.979730853257	0
0	8261	2851.318087708294	1
0	8263	2852.394459073766	2
0	8266	2855.71229507162	1
0	8272	2856.804085833447	2
0	8276	2858.163747264969	3
0	8279	2858.543623093762	4
0	8281	2859.720571433459	5
0	8286	2861.592131551465	4
0	8293	2863.568039669316	5
0	8295	2863.645044792133	6
0	8299	2866.389591817632	7
0	8300	2867.626778801359	6
0	8309	2871.998395839814	7
0	8311	2872.667125893934	8
0	8312	2873.15558865619	7
0	8318	2873.830444083193	6
0	8325	2874.218956560294	5
0	8329	2875.759853563011	6
0	8333	2877.248899483377	7
0	8335	2877.994274565347	8
0	8336	2879.709272753788	7
0	8340	2880.365434108557	8
0	8342	2881.62194947297	9
0	8345	2883.039757213203	8
0	8350	2884.935686050968	7
0	8355	2886.40993159295	6
0	8367	2892.73937588097	7
0	8368	2893.289517556369	6
0	8375	2893.640035684305	7
0	8376	2893.975275556067	6
0	8382	2894.379726720512	7
0	8384	2895.247523320714	6
0	8392	2896.836622602899	5
0	8398	2898.23697587325	4
0	8403	2898.282688291574	3
0	8408	2899.160273796212	2
0	8414	2900.720694791112	3
0	8416	2901.502052319801	4
0	8421	2906.263199929898	5
0	8424	2907.626050964639	6
0	8425	2907.650109363289	5
0	8430	2907.659881679187	4
0	8435	2908.965856646956	3
0	8441	2910.913752733057	4
0	8442	2912.914329380977	3
0	8448	2916.01139967242	2
0	8455	2918.080051739727	1
0	8462	2923.902065428454	0
0	8469	2924.87446636711	1
0	8470	2924.912995655626	0
0	8498	2930.944382926988	1
0	8502	2932.036135097266	0
0	8508	2932.49993243886	1
0	8510	2933.685874194367	0
0	8523	2936.476272482056	1
0	8526	2938.566119579889	0
0	8554	2945.229525334934	1
0	8557	2945.58304849405	0
0	8563	2945.835625918851	1
0	8565	2946.088409126105	0
0	8589	2952.069221394179	1
0	8592	2952.414235344097	0
0	8611	2961.028042462431	1
0	8612	2961.823687873808	0
0	8624	2964.459595028421	1
0	8625	2965.015449919041	0
0	8644	2968.38382737451	1
0	8645	2971.209943213816	0
0	8657	2975.047487676809	1
0	8659	2975.228135505309	2
0	8661	2980.58013269773	3
0	8662	2981.650493847584	2
0	8669	2981.959717674911	1
0	8677	2982.887914720193	0
0	8689	2985.038638447686	1
0	8691	2985.123319191501	2
0	8693	2985.387807643045	1
0	8698	2986.684511814662	0
0	8704	2987.974895665113	1
0	8705	2988.73582863321	0
0	8719	2992.059203880532	1
0	8721	2992.793162978039	0
0	8747	2999.550611249458	1
0	8748	2999.791847699432	0
0	8779	3005.591708319728	1
0	8780	3006.236758494276	0
0	8786	3006.507853883564	1
0	8787	3006.919972104763	0
0	8793	3007.77566127629	1
0	8796	3008.387691910883	2
0	8798	3008.77514808968	3
0	8799	3009.051616899592	2
0	8807	3013.36237375527	1
0	8813	3013.780079958614	2
0	8818	3015.278350608324	3
0	8820	3016.658953352174	4
0	8822	3019.165878955123	3
0	8828	3020.254172510155	2
0	8834	3020.700840535362	1
0	8840	3021.278657928671	2
0	8841	3021.406377787037	1
0	8848	3022.891015374736	0
0	8854	3023.057828926247	1
0	8862	3029.052225844527	2
0	8864	3031.925215195299	3
0	8865	3032.827182310753	2
0	8871	3033.073539839268	3
0	8873	3036.503607246562	4
0	8876	3040.566513057053	3
0	8881	3041.058267728573	2
0	8886	3045.498284458414	1
0	8895	3049.405065278801	0
0	8901	3050.457056152482	1
0	8905	3057.188662073127	0
0	8936	3063.256214189147	1
0	8942	3066.500638986734	0
0	8949	3066.943261829269	1
0	8951	3066.982227075347	2
0	8954	3067.368836214036	3
0	8955	3068.049003574804	2
0	8960	3069.460651737549	1
0	8966	3069.925571339292	0
0	8973	3071.209776946633	1
0	8974	3071.634349606245	0
0	9003	3078.87603591779	1
0	9006	3081.093952205264	0
0	9047	3095.334522165487	1
0	9050	3096.816619522604	0
0	9056	3097.94755128347	1
0	9058	3099.617012896584	0
0	9067	3100.222590697661	1
0	9075	3105.611268966119	2
0	9077	3105.744644510585	3
0	9079	3105.84326145657	2
0	9087	3107.89832487646	3
0	9088	3108.570007521404	2
0	9093	3108.967136925012	1
0	9099	3109.248472675552	0
0	9117	3117.506076944105	1
0	9119	3117.969313230684	2
0	9120	3119.749098070722	1
0	9126	3120.985868674698	2
0	9129	3121.465576343193	1
0	9135	3122.937613248535	0
0	9166	3132.889514162459	1
0	9171	3135.931776367113	0
0	9177	3136.452549436957	1
0	9178	3137.234472833214	0
0	9215	3148.060979700522	1
0	9219	3152.317007738725	2
0	9220	3154.648483113003	1
0	9225	3155.132695800204	0
0	9239	3158.984103243177	1
0	9242	3161.180185414143	0
0	9259	3165.186868839378	1
0	9261	3165.63926457988	2
0	9265	3166.1661303721	3
0	9266	3167.495937071858	2
0	9272	3167.546795322217	3
0	9273	3167.643016075134	2
0	9278	3168.011155010859	1
0	9285	3173.392086398268	0
0	9292	3175.579395492436	1
0	9293	3176.619973262218	0
0	9302	3178.393240873574	1
0	9309	3179.877118594905	2
0	9310	3179.913310448474	1
0	9315	3179.969198178067	0
0	9321	3181.424101118277	1
0	9325	3184.440285605018	2
0	9327	3184.657585437623	3
0	9328	3185.158578376412	2
0	9333	3185.285731185154	1
0	9342	3189.781938442797	2
0	9344	3190.574114787868	3
0	9349	3191.17324718471	4
0	9351	3191.368942636366	5
0	9352	3192.239438226236	4
0	9359	3193.256659522553	5
0	9360	3193.759111359058	4
0	9366	3195.296116356915	5
0	9370	3197.179911746622	4
0	9376	3198.303940889512	5
0	9380	3199.554829374773	6
0	9381	3200.467253940794	5
0	9386	3200.529839022637	4
0	9393	3203.810813925239	3
0	9398	3204.204700587859	2
0	9403	3206.792660154632	1
0	9407	3206.9451330671	2
0	9411	3209.781590074428	3
0	9413	3209.919564317024	4
0	9414	3211.603628499924	3
0	9418	3211.821603576753	4
0	9428	3216.434406064983	3
0	9435	3218.217638927171	2
0	9441	3218.630371486968	3
0	9443	3219.728113167036	2
0	9449	3221.917348994608	1
0	9455	3221.953953123324	2
0	9459	3225.59302507282	1
0	9465	3229.327751609368	0
0	9482	3233.311932444791	1
0	9483	3234.29030675908	0
0	9500	3239.248463432014	1
0	9503	3242.896986077858	0
0	9510	3244.532543966174	1
0	9511	3244.538130201341	0
0	9533	3250.891480602292	1
0	9537	3250.966718421224	2
0	9540	3252.959153076531	1
0	9550	3258.248559800621	0
0	9565	3263.317880272724	1
0	9569	3264.627912732403	2
0	9572	3266.259358749626	1
0	9579	3269.76430992773	0
0	9592	3271.994405439393	1
0	9593	3273.716611776572	0
0	9623	3285.457195660724	1
0	9625	3285.537109217699	2
0	9629	3289.38011161588	3
0	9630	3291.330773974998	2
0	9636	3291.450938052447	3
0	9637	3292.154976802508	2
0	9643	3292.381852712962	1
0	9651	3298.345825461544	2
0	9655	3301.292993517032	3
0	9658	3302.947225859478	2
0	9665	3305.199130184466	1
0	9670	3305.620989141696	0
0	9701	3308.907229081959	1
0	9706	3310.59808798942	0
0	9738	3322.685819318822	1
0	9741	3324.61311284807	0
0	9748	3324.814871307621	1
0	9750	3325.338566525017	0
0	9757	3326.189583901461	1
0	9758	3326.40475332732	0
0	9784	3334.645724323591	1
0	9785	3335.051873985472	0
0	9792	3336.349304609118	1
0	9793	3336.515054951939	0
0	9802	3337.166133810682	1
0	9809	3340.066465875402	0
0	9822	3343.055024748046	1
0	9826	3345.799173863319	2
0	9828	3348.483451380316	1
0	9835	3348.916894374401	0
0	9839	3350.192822300425	1
0	9841	3350.494615493894	2
0	9847	3354.845429587408	3
0	9850	3356.482740923183	4
0	9853	3357.389642302632	3
0	9858	3359.307119894513	2
0	9867	3365.530463891451	1
0	9873	3369.416592446733	2
0	9875	3369.440416136123	3
0	9882	3373.684018362742	2
0	9888	3374.897599311922	3
0	9890	3375.365905344656	4
0	9891	3378.43169190751	3
0	9898	3379.366448534968	4
0	9902	3381.502246942528	5
0	9904	3382.801213479062	6
0	9905	3383.941921748694	5
0	9912	3384.95220762866	4
0	9918	3385.06375624465	5
0	9920	3388.542154382804	4
0	9928	3389.929113305014	3
0	9936	3392.9076605609	2
0	9941	3393.734088600237	1
0	9947	3394.106172809447	0
0	9973	3400.431925779636	1
0	9978	3402.449965764046	0
0	9993	3413.422267123589	1
0	9997	3416.223039109284	2
0	9999	3416.675253018832	3
0	10000	3416.836887270405	2
0	10007	3417.711295892979	3
0	10010	3422.96027745378	2
0	10015	3423.589782367178	1
0	10020	3423.857986146182	0
0	10033	3428.264647828413	1
0	10037	3432.864607156945	2
0	10039	3432.882758657052	3
0	10040	3433.694967587238	2
0	10046	3434.376429316514	3
0	10047	3436.334717634572	2
0	10053	3436.576462682561	3
0	10057	3437.355431215938	4
0	10060	3438.204543785196	5
0	10065	3439.840527133225	6
0	10069	3440.298817142394	7
0	10070	3440.540021477789	6
0	10077	3441.014319882084	7
0	10078	3443.079189405949	6
0	10084	3445.444162147172	5
0	10091	3445.71960446658	6
0	10093	3447.288827646548	5
0	10099	3450.054471966228	4
0	10104	3450.144654011835	3
0	10112	3457.053480467912	4
0	10114	3459.044744510822	3
0	10120	3459.649021039073	4
0	10122	3461.999690203826	5
0	10124	3464.209104472568	6
0	10125	3464.231474005105	5
0	10130	3464.34713606095	4
0	10134	3465.074063460724	5
0	10140	3467.316667775721	6
0	10147	3473.482988190689	5
0	10153	3473.812376128506	6
0	10154	3475.111582877013	5
0	10159	3475.973679725258	4
0	10165	3477.72157260834	3
0	10173	3478.581331446028	4
0	10177	3479.007445178623	5
0	10178	3481.057116257122	4
0	10189	3485.429005357499	3
0	10195	3489.799448173561	2
0	10201	3491.6995752047	1
0	10206	3491.731302287005	0
0	10219	3494.695478791304	1
0	10221	3496.861763152896	2
0	10222	3497.037840937081	1
0	10228	3497.05035752085	2
0	10231	3498.40714035226	3
0	10236	3502.843590048793	2
0	10242	3503.565755039865	1
0	10248	3505.246617008087	2
0	10249	3505.940901876967	1
0	10257	3507.186142836014	2
0	10258	3507.495036472451	1
0	10264	3508.85721300958	2
0	10265	3508.989008831824	1
0	10273	3509.939349524157	2
0	10281	3513.102998458189	1
0	10286	3513.433237455662	0
0	10292	3514.218708769679	1
0	10297	3515.661253236514	0
0	10304	3516.678191212738	1
0	10305	3517.347674706084	0
0	10327	3523.567670555997	1
0	10331	3524.25975341018	2
0	10332	3524.269783566241	1
0	10342	3530.144213765007	2
0	10343	3530.495378707802	1
0	10348	3530.73817368539	0
0	10354	3532.834614970323	1
0	10355	3533.045525274312	0
0	10381	3540.474664219692	1
0	10387	3545.800066098616	2
0	10389	3547.80912203781	1
0	10395	3550.586790914132	0
0	10420	3557.257592532614	1
0	10426	3559.050842584817	2
0	10427	3559.099461698807	1
0	10434	3563.88550863789	2
0	10436	3564.115025328339	3
0	10438	3564.72003301747	4
0	10439	3566.676948489804	3
0	10444	3568.107421714895	2
0	10453	3570.438892711935	1
0	10458	3570.662196315445	0
0	10462	3571.695813109739	1
0	10466	3572.82175538553	2
0	10468	3573.034507060104	3
0	10470	3573.790378583375	4
0	10471	3574.105043490599	3
0	10480	3576.616456216479	2
0	10486	3577.918729379482	3
0	10487	3578.442335284634	2
0	10492	3584.501273135376	1
0	10496	3584.524102337522	2
0	10502	3587.518439489029	3
0	10503	3587.982364244564	2
0	10511	3589.145004492768	3
0	10514	3590.15502081475	4
0	10515	3590.24803880602	3
0	10528	3592.011282382175	2
0	10536	3593.73603535475	1
0	10541	3594.651532613442	0
0	10559	3606.004380563418	1
0	10561	3609.085168004699	2
0	10563	3609.546097758059	3
0	10564	3610.257201121318	2
0	10569	3610.286076532429	1
0	10575	3610.372769370525	2
0	10577	3611.182762741396	1
0	10584	3614.996694221132	0
0	10588	3616.005946899904	1
0	10594	3622.711732000802	2
0	10596	3624.084479505539	3
0	10597	3624.838347073086	2
0	10604	3625.926939558518	3
0	10605	3626.435680756106	2
0	10611	3626.655751685947	1
0	10616	3627.46247013278	0
0	10638	3639.09596677829	1
0	10639	3644.984340129362	0
0	10651	3647.951104624016	1
0	10654	3650.470985424697	0
0	10669	3655.283358684554	1
0	10671	3656.087904011469	0
0	10678	3656.798784329231	1
0	10679	3657.147507948121	0
0	10686	3658.363144475003	1
0	10687	3658.631664629258	0
0	10693	3658.728833244679	1
0	10694	3659.355376875929	0
0	10702	3659.969658479481	1
0	10704	3660.442535752488	0
0	10716	3663.108539919407	1
0	10718	3664.474090804256	2
0	10720	3666.626458584861	3
0	10721	3669.047507308776	2
0	10726	3669.619727915008	1
0	10733	3670.153129011481	2
0	10734	3671.081862379673	1
0	10740	3671.791710511631	2
0	10745	3674.541418735944	1
0	10750	3675.069155971882	0
0	10762	3676.550831855323	1
0	10765	3678.158790828164	0
0	10771	3679.801788641606	1
0	10773	3680.082923647764	2
0	10776	3680.346218167571	1
0	10781	3681.131855984699	0
0	10788	3682.604960164491	1
0	10790	3685.318977016898	2
0	10791	3685.482313197459	1
0	10795	3686.561949402602	2
0	10797	3686.688665470218	3
0	10800	3689.682190781828	2
0	10811	3692.690978251172	1
0	10819	3696.251472121262	0
0	10840	3702.979903494198	1
0	10841	3704.750273501116	0
0	10847	3706.406415727772	1
0	10850	3706.838959515119	2
0	10852	3707.24906584865	3
0	10855	3708.203393299989	2
0	10861	3708.92917443415	1
0	10867	3709.364927737506	2
0	10868	3709.405529315922	1
0	10875	3714.676002066312	0
0	10926	3733.999600951351	1
0	10927	3735.441122306742	0
0	10945	3741.969826647313	1
0	10946	3745.33702036125	0
0	10970	3753.403766526034	1
0	10973	3753.903345848479	0
0	10979	3753.930740277288	1
0	10980	3754.39377717303	0
0	10986	3754.652367348029	1
0	10987	3754.924908748486	0
0	10991	3755.203253886769	1
0	10997	3761.225781377284	0
0	11005	3762.774485116609	1
0	11006	3764.915246252512	0
0	11023	3768.387356352449	1
0	11027	3769.7287376109	2
0	11028	3770.230810018485	1
0	11035	3771.000862220558	2
0	11036	3772.762899390586	1
0	11043	3776.01926570023	2
0	11046	3777.322918332036	1
0	11051	3778.635857564876	0
0	11077	3785.892499808448	1
0	11079	3787.168964760999	2
0	11087	3789.962235398756	3
0	11088	3790.509134427141	2
0	11098	3793.889363218113	3
0	11100	3794.499842206892	4
0	11102	3794.909850302022	5
0	11104	3795.95807171132	6
0	11105	3796.255147418738	5
0	11111	3797.847908546426	4
0	11119	3802.12929306498	3
0	11126	3802.328382433996	4
0	11127	3802.368991444519	3
0	11132	3803.113377179013	2
0	11137	3803.762626646353	1
0	11141	3805.546346487842	2
0	11145	3807.644267365324	1
0	11152	3808.602258790921	0
0	11159	3810.726950013165	1
0	11163	3811.417178790403	0
0	11175	3814.403233630041	1
0	11176	3816.355383504026	0
0	11183	3817.18069203082	1
0	11187	3818.876974879861	0
0	11218	3824.909587442489	1
0	11219	3825.937155018766	0
0	11250	3830.570827888902	1
0	11253	3831.061835459218	0
0	11260	3831.76779497345	1
0	11265	3833.014053713731	2
0	11267	3834.47275594455	3
0	11268	3836.721322867646	2
0	11274	3838.92715122448	1
0	11280	3839.380863951708	2
0	11281	3843.984893309165	1
0	11287	3847.625981098876	2
0	11288	3847.934098702773	1
0	11292	3848.057308715364	2
0	11294	3848.661084548644	3
0	11299	3851.019058460828	2
0	11305	3851.361119242355	3
0	11306	3851.468267429948	2
0	11311	3851.497713235861	1
0	11316	3852.525794330669	0
0	11320	3852.70260837214	1
0	11324	3854.170991402038	0
0	11343	3857.331570879052	1
0	11346	3858.381929631397	0
0	11358	3860.691518376405	1
0	11359	3860.764339099123	0
0	11382	3865.272842334194	1
0	11386	3866.680564926607	2
0	11387	3867.226775674777	1
0	11394	3870.262866151873	2
0	11395	3870.55678360038	1
0	11400	3871.082666284145	0
0	11413	3873.660796618588	1
0	11415	3873.890753140994	2
0	11420	3876.968444472196	3
0	11421	3877.029909237862	2
0	11427	3877.166059183085	3
0	11430	3878.639379388217	2
0	11436	3879.314823936198	3
0	11440	3881.007991890833	2
0	11449	3881.560145923151	3
0	11451	3881.679381245984	4
0	11453	3883.252067575671	3
0	11460	3883.479498191324	4
0	11461	3885.063241148797	3
0	11467	3885.35129197155	4
0	11468	3892.362635709596	3
0	11474	3892.756485972039	4
0	11477	3894.209091963033	5
0	11478	3894.209906793132	4
0	11483	3895.266461740258	3
0	11487	3896.165597232467	4
0	11490	3897.075998309835	3
0	11498	3899.705278378212	2
0	11506	3901.779369199636	3
0	11507	3902.522415603358	2
0	11513	3902.80062201648	3
0	11516	3905.665570586681	4
0	11520	3907.454390471579	5
0	11521	3909.453727782685	4
0	11527	3910.717106243981	3
0	11534	3912.882717179973	2
0	11543	3919.145680893919	1
0	11550	3919.336112262678	2
0	11553	3921.375645534082	1
0	11558	3921.664477828879	0
0	11564	3921.723635099129	1
0	11569	3924.638830234896	0
0	11585	3929.459376710179	1
0	11586	3930.922885236861	0
0	11593	3932.025732949129	1
0	11595	3932.494596106257	2
0	11596	3933.372700045776	1
0	11602	3933.503260906841	2
0	11606	3935.538892521715	1
0	11615	3937.741836905186	0
0	11621	3937.839052082385	1
0	11622	3937.900721058188	0
0	11648	3944.292798837846	1
0	11651	3945.444164917591	0
0	11668	3947.739405874783	1
0	11670	3949.968598800358	2
0	11673	3952.025191488345	1
0	11679	3952.338873923303	0
0	11687	3953.643240333331	1
0	11690	3954.096943413497	0
0	11716	3958.946134567278	1
0	11720	3963.368926382867	0
0	11758	3976.722139977629	1
0	11759	3976.956065128793	0
0	11770	3977.873095655685	1
0	11772	3982.698594207463	0
0	11784	3987.183490013845	1
0	11785	3989.467923930358	0
0	11792	3994.216651925825	1
0	11795	3994.363094031422	0
0	11805	3998.815649167104	1
0	11809	4000.033388770337	2
0	11810	4000.674052281588	1
0	11815	4001.342881386565	0
0	11826	4004.477118540399	1
0	11828	4005.324048515727	2
0	11830	4006.871713686311	3
0	11831	4007.727564508902	2
0	11838	4009.725526648642	3
0	11840	4009.853779059166	4
0	11841	4010.066283082173	3
0	11847	4011.025090518633	2
0	11852	4011.310270676091	1
0	11856	4012.297840006789	2
0	11860	4015.482581505104	3
0	11863	4016.720258929011	2
0	11867	4016.891686199044	3
0	11870	4019.013197408577	2
0	11876	4020.715910291762	3
0	11879	4024.416194762923	2
0	11885	4028.008890751682	1
0	11895	4031.009115376359	0
0	11908	4033.452579605726	1
0	11910	4034.872742760587	2
0	11913	4037.625497201177	1
0	11919	4038.326028321596	2
0	11921	4043.385455414762	1
0	11928	4043.923443701837	2
0	11929	4044.430208501756	1
0	11934	4044.523231678992	0
0	11940	4045.35184972665	1
0	11944	4048.166559561088	2
0	11946	4050.313517727782	3
0	11948	4051.455661302073	4
0	11950	4051.477032875402	5
0	11951	4052.073575496031	4
0	11957	4054.143357988186	3
0	11963	4058.285045333716	2
0	11969	4058.449731445749	3
0	11971	4058.508221549138	4
0	11973	4060.016950433647	5
0	11974	4060.608944152356	4
0	11981	4062.940145782216	3
0	11988	4063.815160668617	2
0	11994	4064.448454459254	3
0	11995	4065.942065813891	2
0	12001	4066.237826597118	3
0	12003	4070.388823681367	2
0	12009	4072.699557093198	3
0	12011	4072.779765837405	4
0	12013	4072.972991203094	5
0	12015	4073.076703012081	6
0	12016	4073.508087804944	5
0	12022	4076.424755783675	6
0	12026	4077.029420475058	7
0	12027	4079.551400570586	6
0	12034	4081.416441127252	5
0	12038	4082.013394606123	6
0	12044	4083.861701301581	7
0	12048	4085.576074694337	8
0	12055	4089.398593909374	9
0	12059	4090.793180955191	8
0	12067	4093.426779670481	7
0	12077	4096.115833515484	6
0	12088	4096.463450060129	7
0	12089	4096.644067532384	6
0	12095	4097.885211892013	5
0	12101	4098.971000915835	6
0	12103	4102.553049884094	5
0	12108	4103.740842455158	4
0	12117	4107.263847970322	3
0	12122	4107.717827714022	2
0	12132	4117.675907896501	3
0	12134	4117.685625785548	4
0	12135	4119.856427638398	3
0	12140	4120.768999690783	2
0	12147	4125.170839528936	1
0	12157	4129.49681325901	0
0	12194	4147.411531832326	1
0	12196	4148.592783228433	2
0	12198	4148.648359973792	3
0	12201	4151.250863563918	2
0	12207	4152.566104400352	3
0	12211	4154.487337017019	4
0	12215	4155.73553308928	5
0	12217	4156.302164587474	6
0	12223	4160.807613780451	7
0	12225	4162.092528957603	8
0	12226	4162.865525416824	7
0	12232	4162.950819785823	8
0	12234	4163.313267160221	7
0	12242	4164.601484910781	6
0	12247	4165.232287466998	5
0	12251	4165.818638267079	6
0	12254	4166.713273347341	5
0	12259	4168.348708522584	4
0	12264	4169.744908876001	3
0	12270	4170.58872775924	4
0	12272	4172.497019463981	5
0	12276	4173.316150344877	6
0	12277	4173.336915905228	5
0	12285	4178.781197325021	6
0	12286	4182.641531885849	5
0	12292	4184.346761237492	6
0	12294	4186.284542498327	5
0	12299	4186.29352265386	4
0	12304	4187.530562255109	3
0	12311	4189.652587708272	2
0	12319	4191.898538805262	1
0	12326	4192.571241720354	0
0	12332	4192.859047528394	1
0	12334	4193.738086451148	0
0	12354	4199.780778964838	1
0	12360	4207.040389727148	2
0	12362	4207.377093716838	3
0	12363	4211.451320371008	2
0	12369	4211.553549052359	3
0	12371	4211.733806601764	4
0	12372	4211.750809654802	3
0	12377	4212.309526857994	2
0	12386	4218.274879639604	1
0	12392	4221.68642792332	0
0	12403	4223.577226882778	1
0	12409	4225.67998066533	0
0	12427	4228.506033762004	1
0	12430	4232.335071689007	0
0	12450	4238.319267858803	1
0	12451	4240.123190017223	0
0	12461	4241.98146264843	1
0	12465	4245.222195464376	2
0	12466	4245.373956462125	1
0	12471	4246.578088215033	0
0	12477	4246.754088237924	1
0	12479	4247.50164622597	0
0	12488	4248.677483603823	1
0	12492	4251.697703655052	0
0	12499	4252.339679647476	1
0	12504	4254.863173693038	0
0	12510	4255.057978863396	1
0	12511	4255.966976753391	0
0	12537	4259.973858423588	1
0	12538	4260.615528870567	0
0	12547	4261.428304442063	1
0	12551	4263.090209431725	0
0	12563	4266.330984053587	1
0	12565	4270.65654073628	2
0	12566	4270.931855802504	1
0	12571	4270.95600360104	0
0	12585	4274.789369838278	1
0	12586	4275.357931853963	0
0	12641	4290.900981741753	1
0	12643	4291.095434446007	2
0	12651	4298.064013626039	3
0	12652	4300.040930213239	2
0	12661	4302.602993777318	1
0	12667	4302.755387002612	2
0	12672	4304.112846267998	3
0	12674	4304.625484057735	2
0	12679	4305.081513138978	1
0	12685	4306.098637946146	2
0	12688	4308.480807112679	1
0	12694	4309.332716925218	2
0	12695	4309.339578069929	1
0	12700	4310.390982200454	0
0	12716	4314.817949092956	1
0	12718	4316.450535386492	2
0	12720	4316.604136234333	3
0	12722	4318.616462729979	2
0	12727	4318.75180982157	1
0	12734	4319.692615557442	0
0	12749	4325.42968604663	1
0	12751	4326.744128081099	2
0	12752	4328.101925579984	1
0	12760	4330.705835511503	0
0	12774	4332.248040328587	1
0	12776	4333.420321944594	2
0	12778	4333.904365328079	3
0	12781	4334.714421645658	2
0	12786	4335.177517804505	1
0	12790	4335.317674985889	2
0	12793	4336.741817454273	1
0	12801	4340.585568087178	0
0	12811	4342.923290606094	1
0	12813	4346.841350219725	2
0	12816	4347.995774647906	1
0	12823	4350.561806431506	2
0	12826	4355.508763745891	1
0	12833	4357.029478840503	2
0	12839	4360.702831968292	3
0	12840	4361.045324857398	2
0	12846	4363.458650783827	1
0	12852	4363.792019246835	0
0	12872	4368.31987258376	1
0	12873	4368.991162173298	0
0	12888	4375.034849003236	1
0	12889	4375.575537260354	0
0	12905	4379.477252938425	1
0	12909	4383.690784667025	2
0	12911	4383.941294317609	3
0	12913	4384.266319105958	4
0	12916	4392.102553756101	3
0	12924	4395.565249315448	2
0	12929	4395.678755511536	1
0	12936	4397.086457251294	2
0	12938	4397.466682824273	3
0	12939	4397.880741068447	2
0	12947	4399.763993455739	3
0	12949	4400.836757009905	2
0	12955	4401.094082137002	3
0	12957	4402.094797900878	2
0	12963	4402.579951343453	3
0	12965	4403.028607666096	4
0	12966	4403.265675627068	3
0	12975	4406.194870793458	2
0	12980	4406.616218139733	1
0	12986	4407.13289324048	2
0	12987	4408.934470049323	1
0	12999	4417.522647640045	2
0	13000	4419.603758056557	1
0	13004	4419.795537718879	2
0	13008	4421.714518265702	3
0	13011	4423.352005801785	2
0	13018	4428.978681456683	3
0	13021	4434.378384681961	2
0	13028	4440.912920034815	1
0	13035	4443.410770092757	2
0	13036	4444.314847700483	1
0	13043	4445.961818128694	2
0	13044	4446.290414250464	1
0	13050	4454.088109241734	0
0	13056	4454.113563045669	1
0	13057	4455.207738862404	0
0	13082	4459.289780350191	1
0	13085	4459.376623332875	0
0	13096	4461.277968951154	1
0	13101	4465.022491589859	0
0	13108	4467.16469644309	1
0	13109	4468.750762576956	0
0	13116	4470.469811643628	1
0	13117	4470.89191335881	0
0	13125	4473.479143550539	1
0	13129	4474.106852425681	0
0	13143	4476.33108678826	1
0	13145	4477.777041223815	2
0	13146	4478.330813461871	1
0	13152	4481.890722634691	0
0	13158	4482.282825454799	1
0	13159	4482.285338061636	0
0	13176	4487.003339187425	1
0	13178	4487.556043377412	2
0	13179	4491.515632155563	1
0	13188	4496.299671810298	2
0	13190	4500.688919952362	3
0	13192	4502.558445522685	4
0	13196	4505.20960955415	5
0	13198	4506.041913093997	6
0	13199	4506.331213322062	5
0	13205	4507.496599558418	4
0	13212	4508.13702050291	5
0	13223	4509.460897178432	4
0	13229	4511.22200164376	3
0	13234	4511.618889130661	2
0	13240	4511.941357486256	3
0	13242	4512.349733860716	2
0	13248	4513.5993046128	1
0	13253	4514.709931730031	0
0	13284	4521.25636625252	1
0	13287	4524.254256934325	0
0	13356	4543.68369230742	1
0	13358	4544.901314808226	2
0	13359	4546.770011535511	1
0	13367	4547.602417010505	0
0	13376	4551.545001987056	1
0	13380	4552.790724800819	2
0	13383	4554.36490219436	3
0	13385	4554.512711218711	4
0	13387	4554.788701881235	5
0	13393	4556.721453543393	4
0	13400	4559.31292370085	5
0	13403	4561.79874572723	6
0	13404	4563.51175266642	5
0	13410	4564.007097312344	6
0	13411	4564.319706970401	5
0	13423	4568.87372257104	6
0	13426	4571.051197066329	5
0	13433	4572.992238817278	4
0	13438	4573.343399776127	3
0	13446	4576.549417368813	4
0	13447	4576.663632602284	3
0	13456	4578.546481361045	4
0	13461	4581.733239891804	3
0	13468	4582.536768497358	4
0	13470	4583.991153150857	3
0	13476	4586.286839095341	2
0	13482	4586.356075629642	3
0	13485	4587.034455275828	2
0	13491	4587.338860166988	1
0	13497	4587.61591456059	2
0	13499	4587.674344955794	3
0	13502	4591.034409572228	2
0	13507	4591.05132933468	1
0	13513	4592.403326316111	2
0	13514	4593.134212351409	1
0	13519	4595.82815944767	0
0	13523	4597.496149251283	1
0	13527	4598.808724753809	0
0	13533	4599.065393448508	1
0	13535	4599.914603300355	2
0	13536	4600.312452277961	1
0	13545	4606.615170139458	0
0	13558	4608.290626899651	1
0	13561	4613.478827033875	0
0	13567	4613.947569221288	1
0	13569	4616.194836395926	0
0	13589	4618.775463299012	1
0	13590	4624.556339133955	0
0	13607	4630.598510380792	1
0	13608	4638.118746537606	0
0	13617	4638.705116683556	1
0	13624	4642.307118649201	2
0	13627	4645.735980534943	1
0	13632	4646.480299752957	0
0	13638	4646.645963741378	1
0	13641	4649.667252953573	0
0	13670	4664.174893519829	1
0	13672	4665.509451071728	2
0	13676	4668.288417153663	3
0	13678	4668.314892676455	4
0	13682	4669.553968392821	5
0	13685	4671.007221982558	4
0	13691	4673.046599806631	3
0	13697	4674.183077743881	2
0	13705	4676.734134991346	1
0	13713	4677.989002106179	2
0	13716	4679.779529490542	3
0	13726	4682.680622803565	4
0	13729	4683.318210907909	3
0	13735	4683.939290311668	4
0	13736	4684.027358246639	3
0	13741	4685.6579795315	2
0	13746	4685.837740613724	1
0	13751	4686.780880384554	0
0	13755	4687.185272999351	1
0	13765	4693.530793883921	0
0	13782	4702.687904914721	1
0	13783	4706.090628594217	0
0	13793	4707.85065614518	1
0	13797	4708.85477004428	2
0	13798	4708.932492327632	1
0	13809	4713.995963191629	2
0	13810	4714.559096483048	1
0	13818	4715.943365886114	2
0	13824	4717.535779558701	3
0	13826	4718.661053977104	4
0	13827	4719.020356953002	3
0	13835	4723.401425942702	4
0	13836	4723.507088139867	3
0	13847	4725.994342289516	4
0	13849	4726.247721461887	5
0	13853	4729.327160241406	6
0	13854	4729.352220593857	5
0	13861	4731.332459189064	4
0	13869	4733.31078250329	5
0	13871	4734.720795628391	4
0	13877	4734.841285855292	5
0	13881	4736.541751698058	6
0	13885	4739.267916397436	7
0	13886	4739.325860402072	6
0	13894	4743.243875097894	5
0	13900	4744.556754436287	4
0	13907	4745.075258292904	5
0	13911	4745.704317482953	6
0	13922	4747.989643042639	5
0	13928	4748.042190890343	6
0	13929	4748.625942263385	5
0	13937	4749.467439503311	6
0	13939	4749.67956305614	7
0	13941	4750.287892884325	8
0	13943	4750.418022743096	9
0	13944	4751.090229786406	8
0	13952	4751.96836412408	9
0	13953	4752.188692874858	8
0	13958	4752.885336970285	7
0	13963	4753.153869681438	6
0	13968	4759.507458104748	5
0	13972	4759.943625910449	6
0	13978	4763.187213265932	7
0	13981	4765.308385624169	6
0	13989	4768.155583156946	5
0	13994	4768.330731585849	4
0	13999	4768.465884758244	3
0	14006	4772.652677442825	2
0	14012	4772.657785086301	3
0	14014	4774.516468232522	4
0	14015	4774.675749514714	3
0	14022	4782.166939674649	2
0	14027	4782.23779924525	1
0	14034	4786.596423484043	0
0	14046	4787.70920900423	1
0	14048	4792.306672726241	2
0	14049	4792.700582850588	1
0	14054	4793.369533793415	0
0	14078	4798.150451182979	1
0	14084	4800.173202183044	2
0	14086	4800.295296839339	3
0	14088	4801.433654724888	2
0	14095	4802.287980575789	3
0	14097	4802.337550038721	4
0	14100	4803.124127360777	3
0	14107	4804.556252290769	4
0	14108	4805.680570822114	3
0	14113	4805.750015648036	2
0	14119	4806.454598998473	1
0	14124	4806.998159786483	0
0	14130	4808.585250630646	1
0	14132	4808.646702029785	2
0	14135	4809.514443888922	1
0	14142	4809.865698064319	0
0	14169	4815.409301282024	1
0	14172	4815.793556811669	0
0	14180	4816.892826528968	1
0	14183	4819.621847845599	0
0	14197	4822.00751158835	1
0	14198	4824.342261382033	0
0	14209	4824.72148154591	1
0	14217	4825.222884908497	2
0	14219	4825.681133928069	3
0	14222	4827.061972604355	2
0	14228	4828.129399663153	1
0	14233	4828.505097351754	0
0	14257	4833.099943006099	1
0	14258	4837.972296141227	0
0	14267	4840.232422189423	1
0	14269	4840.72328630928	2
0	14272	4841.409051727609	1
0	14277	4841.589681950263	0
0	14281	4842.716226820157	1
0	14285	4844.483872342698	0
0	14293	4847.456121220051	1
0	14294	4848.030525441042	0
0	14315	4855.945210347655	1
0	14321	4858.019423129702	0
0	14335	4859.766363289116	1
0	14336	4860.695762140629	0
0	14348	4866.729498074225	1
0	14351	4871.315294113861	0
0	14360	4871.852388964918	1
0	14364	4877.907696692842	0
0	14376	4880.895257367565	1
0	14377	4882.320063907331	0
0	14390	4884.188057714471	1
0	14392	4885.065203651059	2
0	14393	4887.022932212504	1
0	14399	4888.787244526247	0
0	14406	4890.59090996794	1
0	14407	4891.033308890977	0
0	14421	4893.021678086584	1
0	14423	4895.63461396326	0
0	14435	4896.241258512607	1
0	14436	4898.523115853634	0
0	14450	4900.773410192332	1
0	14456	4907.966744777004	0
0	14481	4922.673150952662	1
0	14487	4925.129691104863	2
0	14488	4925.941234396592	1
0	14493	4926.209725525328	0
0	14503	4927.254620550669	1
0	14507	4928.373978350898	0
0	14516	4929.727957379751	1
0	14521	4931.543822942616	0
0	14539	4934.674648541255	1
0	14541	4935.295702676697	0
0	14586	4954.397821083132	1
0	14589	4954.6399410646	0
0	14595	4955.503233373317	1
0	14600	4958.883047632901	2
0	14602	4959.031912999714	3
0	14604	4959.906001296159	4
0	14605	4961.41292046293	3
0	14610	4961.856171273082	2
0	14615	4962.699050676264	1
0	14622	4964.535396915177	0
0	14639	4967.795916681546	1
0	14641	4969.205423138726	2
0	14645	4971.223688777641	3
0	14646	4974.426267363293	2
0	14654	4976.902813381036	1
0	14659	4977.14889278087	0
0	14675	4986.800117641851	1
0	14684	4988.828508867935	0
0	14703	4994.177068016533	1
0	14706	4996.828689563697	0
0	14718	5002.110265240125	1
0	14719	5002.650658916899	0
0	14731	5006.133471449403	1
0	14734	5008.995214479069	0
0	14762	5015.358038116257	1
0	14763	5015.362660601984	0
0	14781	5018.182579861764	1
0	14785	5021.499019199507	2
0	14786	5025.250702838445	1
0	14794	5028.811474129607	0
0	14803	5030.455926898803	1
0	14806	5031.157148143353	0
0	14817	5031.818385077517	1
0	14818	5031.948537800424	0
0	14836	5034.511901464633	1
0	14838	5035.804801739031	0
0	14857	5037.306629615231	1
0	14858	5038.039076436514	0
0	14870	5038.725264604544	1
0	14871	5039.711086950682	0
0	14888	5042.393933778118	1
0	14892	5050.029148774037	2
0	14893	5051.546522723641	1
0	14898	5052.426918124053	0
0	14924	5065.715584556659	1
0	14929	5070.875074697255	0
0	14935	5071.201935569818	1
0	14937	5072.630897459658	0
0	14954	5077.592681193736	1
0	14955	5078.787634650323	0
0	14964	5079.30972255578	1
0	14966	5079.774390538459	2
0	14969	5082.136050536397	1
0	14974	5083.667015653889	0
0	14978	5085.305286950358	1
0	14983	5088.936862712755	0
0	14989	5092.745867363557	1
0	14990	5093.845606871523	0
0	14996	5096.277203010675	1
0	14997	5096.906567346888	0
0	15005	5098.305753307781	1
0	15010	5101.765616901529	0
0	15020	5103.482419563254	1
0	15028	5107.433455466677	0
0	15036	5109.283633490598	1
0	15037	5111.268311430912	0
0	15053	5113.322903465582	1
0	15054	5113.813999497908	0
0	15060	5114.300005879787	1
0	15064	5114.790416436156	0
0	15075	5117.891548087093	1
0	15079	5119.76851981461	0
0	15111	5132.811053797007	1
0	15115	5133.228893689433	2
0	15117	5134.295049247102	3
0	15118	5134.840862949643	2
0	15124	5135.521593354926	3
0	15130	5139.153086078742	2
0	15135	5139.221111962797	1
0	15143	5141.141124018573	2
0	15151	5145.064500767338	3
0	15152	5146.266583551837	2
0	15159	5147.116829982961	3
0	15161	5148.351517684806	4
0	15162	5148.563858060923	3
0	15167	5148.800099192551	2
0	15174	5149.208500889204	3
0	15177	5150.828402750655	2
0	15188	5159.616788089033	3
0	15189	5160.020180190983	2
0	15195	5160.865026219196	3
0	15196	5163.364201421932	2
0	15201	5163.452643422114	1
0	15211	5168.626556286013	2
0	15213	5168.819028960941	3
0	15215	5171.507227510679	4
0	15216	5173.224579328361	3
0	15221	5174.992233073007	2
0	15226	5175.155547312612	1
0	15230	5175.246819654741	2
0	15232	5178.350600201114	3
0	15236	5178.734298679196	4
0	15238	5179.329843586625	3
0	15244	5179.572666309952	4
0	15245	5180.199811290954	3
0	15251	5185.500829955496	4
0	15253	5186.05916130766	5
0	15255	5186.735114573814	6
0	15259	5187.974440843601	5
0	15264	5189.019619785718	4
0	15268	5189.918871054304	5
0	15273	5192.412205509043	6
0	15276	5194.161257190219	7
0	15277	5194.274299627772	6
0	15283	5195.790119066531	5
0	15288	5196.102156141471	4
0	15293	5196.983394355797	3
0	15301	5203.301737384205	2
0	15306	5204.709674741669	1
0	15312	5206.287966602632	2
0	15313	5206.409017080657	1
0	15318	5207.291698379863	0
0	15324	5211.776146570281	1
0	15328	5214.32748368807	0
0	15342	5218.874546978975	1
0	15343	5219.893718682614	0
0	15366	5228.741444879214	1
0	15368	5228.880849838759	2
0	15369	5230.956167396166	1
0	15375	5231.652242416899	2
0	15378	5233.145932639688	3
0	15379	5233.821176407487	2
0	15386	5235.502087500158	1
0	15393	5237.066075766867	2
0	15394	5237.441643136057	1
0	15401	5237.537883032954	2
0	15402	5237.763903293948	1
0	15410	5242.159981432466	2
0	15414	5244.495752776683	3
0	15415	5246.780683680449	2
0	15420	5247.313735233809	1
0	15425	5247.498474356775	0
0	15433	5250.369703784589	1
0	15434	5251.656644095673	0
0	15446	5252.917626015352	1
0	15451	5254.309589567237	2
0	15452	5258.599453396799	1
0	15460	5261.982048926914	0
0	15477	5263.269280213131	1
0	15478	5263.876467682062	0
0	15499	5268.700178046191	1
0	15502	5270.913798544813	0
0	15520	5278.262848340787	1
0	15521	5278.600028780817	0
0	15532	5281.70572720207	1
0	15534	5281.898740618826	2
0	15536	5284.105622207963	3
0	15539	5285.145281223585	2
0	15553	5292.80472673346	3
0	15555	5292.964304715495	4
0	15557	5293.874204119054	5
0	15560	5296.983319137471	4
0	15568	5298.001475470247	3
0	15574	5298.473152070985	4
0	15576	5301.434423936712	5
0	15577	5302.326135141467	4
0	15583	5303.631569539589	3
0	15588	5304.437395423876	2
0	15594	5313.241461672921	3
0	15597	5314.222241707985	4
0	15602	5317.045059560283	5
0	15604	5317.430710798611	6
0	15605	5317.516944055384	5
0	15611	5321.751670024123	4
0	15616	5322.281113252817	3
0	15624	5325.957881576028	4
0	15625	5326.045620091169	3
0	15631	5327.414210874847	2
0	15638	5329.596200994364	3
0	15640	5332.244441233916	4
0	15641	5332.542852782387	3
0	15649	5335.088084880115	2
0	15656	5336.29853610012	3
0	15657	5336.302297284627	2
0	15663	5336.35095939124	3
0	15664	5336.726700668108	2
0	15669	5338.094482265122	1
0	15676	5343.970498753052	0
0	15691	5350.632023823096	1
0	15693	5351.863765342772	2
0	15695	5353.57089765933	3
0	15697	5355.565320553273	4
0	15699	5356.124112248182	5
0	15700	5359.553732710694	4
0	15706	5361.595331664932	5
0	15709	5362.568518800759	6
0	15710	5365.196029145011	5
0	15718	5367.452526940885	4
0	15724	5367.541962421726	5
0	15725	5368.035751514642	4
0	15732	5371.308425171378	3
0	15737	5371.486227864672	2
0	15742	5371.562364491121	1
0	15751	5378.716931688309	2
0	15754	5379.96141552608	3
0	15755	5380.561397323447	2
0	15760	5380.58974764743	1
0	15767	5383.4947002489	2
0	15773	5388.735646304231	3
0	15774	5391.63822845667	2
0	15779	5391.731042634212	1
0	15784	5393.948223269171	0
0	15794	5402.411282478138	1
0	15798	5404.625996285646	2
0	15801	5408.463394058843	1
0	15806	5408.510433502533	0
0	15827	5412.355408902219	1
0	15829	5412.985565316967	2
0	15833	5414.113631751179	3
0	15838	5416.765806730682	2
0	15844	5417.610232177228	3
0	15847	5419.859323741203	4
0	15850	5421.627320655484	3
0	15856	5422.086288485154	4
0	15857	5422.123747023152	3
0	15865	5422.615865706601	4
0	15868	5423.364165603822	3
0	15875	5423.956346592211	4
0	15877	5426.323328248803	5
0	15879	5426.925083477489	6
0	15880	5427.424250091055	5
0	15885	5427.442378562781	4
0	15890	5427.460906603113	3
0	15902	5431.128397981244	4
0	15903	5433.429964670134	3
0	15908	5433.507719362522	2
0	15914	5433.6169241316	1
0	15924	5438.735714894037	2
0	15926	5438.787721043184	3
0	15927	5439.67398097408	2
0	15932	5440.207945636852	1
0	15939	5441.613946968463	0
0	15967	5451.067643722311	1
0	15969	5454.326934447955	2
0	15971	5454.776525893208	3
0	15974	5457.53349030956	2
0	15979	5457.831969292135	1
0	15984	5458.182328866197	0
0	15988	5458.69308218837	1
0	15991	5463.341362667419	0
0	15997	5465.140894557206	1
0	16000	5465.644456398569	2
0	16002	5467.079825354341	1
0	16007	5467.558271200651	0
0	16014	5469.887748391037	1
0	16018	5471.969482046642	2
0	16019	5474.666326777703	1
0	16028	5478.710207579504	0
0	16043	5483.615897974462	1
0	16045	5484.841206965687	2
0	16046	5485.584578399729	1
0	16052	5486.362405369262	0
0	16086	5494.375737733757	1
0	16087	5494.819423544452	0
0	16096	5495.665848461683	1
0	16098	5495.990744453948	2
0	16100	5498.087124790399	3
0	16102	5498.757390396433	4
0	16104	5498.826200809466	5
0	16109	5500.010609198653	6
0	16110	5503.133701993383	5
0	16117	5504.926776652062	4
0	16122	5505.097246239476	3
0	16126	5506.177958814869	4
0	16128	5506.689776221556	5
0	16130	5506.77348126364	6
0	16133	5508.001171647813	5
0	16139	5510.288167826009	4
0	16144	5510.939091092146	3
0	16153	5515.488744423163	2
0	16159	5516.711936168314	1
0	16167	5518.915388321722	0
0	16187	5527.296075226901	1
0	16189	5527.833136934116	2
0	16193	5528.926922117615	3
0	16195	5529.227797462843	4
0	16197	5530.487111072389	5
0	16201	5534.242558175992	6
0	16202	5535.438225183672	5
0	16207	5537.510397285366	4
0	16215	5538.694900192112	3
0	16224	5541.033731699107	4
0	16226	5541.237343988742	5
0	16227	5541.313278222435	4
0	16232	5541.656455466264	3
0	16239	5545.762729076491	2
0	16244	5546.30631119021	1
0	16249	5546.816866552486	0
0	16260	5548.540331272512	1
0	16264	5553.608748599986	0
0	16275	5556.912178317597	1
0	16280	5558.441401367206	0
0	16292	5563.79465368206	1
0	16295	5564.822381148065	0
0	16311	5568.277145928309	1
0	16319	5571.905724697843	2
0	16321	5574.830944294359	3
0	16322	5575.689683387553	2
0	16327	5575.895407011246	1
0	16335	5576.863619151634	0
0	16354	5582.275785970636	1
0	16359	5582.990364603355	2
0	16360	5583.046423967578	1
0	16366	5584.468046966368	2
0	16368	5585.321147301225	3
0	16370	5585.350927675049	4
0	16372	5585.484317223958	5
0	16376	5587.234355766285	6
0	16377	5590.884800171018	5
0	16385	5591.386673741389	6
0	16388	5592.753557151669	7
0	16389	5593.563656277721	6
0	16397	5593.997811127725	7
0	16398	5595.479722991443	6
0	16404	5595.864610566099	7
0	16405	5596.189978590333	6
0	16409	5597.665401098888	7
0	16411	5598.432739534522	8
0	16414	5599.266972489086	7
0	16420	5600.949568261582	8
0	16423	5602.432879215005	7
0	16428	5603.367931352569	6
0	16434	5603.800617198694	5
0	16439	5604.391449609277	4
0	16448	5608.306246817074	3
0	16452	5608.848120463837	4
0	16454	5609.625217450947	5
0	16462	5616.742410395788	6
0	16463	5617.453621947937	5
0	16468	5617.548720745128	4
0	16474	5618.007578700086	3
0	16480	5618.030903160801	4
0	16482	5619.104147456711	3
0	16487	5619.375073842072	2
0	16494	5623.332238289743	1
0	16498	5625.286932599606	2
0	16502	5626.753403676652	3
0	16507	5631.487970660469	2
0	16512	5634.552839740315	1
0	16518	5634.966764857019	2
0	16521	5637.156852226055	3
0	16524	5639.287502331571	4
0	16526	5641.065439597164	5
0	16527	5641.878919639786	4
0	16534	5642.306675827422	3
0	16543	5647.353109112768	2
0	16548	5648.306335291561	1
0	16556	5648.554160194054	2
0	16557	5649.648011990749	1
0	16562	5650.928289365055	0
0	16566	5652.408424097678	1
0	16568	5653.030379166604	2
0	16570	5655.072696928825	3
0	16574	5657.016029293536	4
0	16576	5658.403445265001	3
0	16581	5658.747510810235	2
0	16591	5665.03392085083	3
0	16593	5665.917507708458	4
0	16594	5667.869180491818	3
0	16599	5669.55294230936	2
0	16611	5672.199266266398	3
0	16613	5673.254499779191	4
0	16618	5674.129955562698	3
0	16624	5678.678161278604	2
0	16630	5679.301120003394	1
0	16637	5683.460250135192	2
0	16638	5685.522943188685	1
0	16647	5686.721149688484	2
0	16648	5687.098677265234	1
0	16654	5687.253066379089	2
0	16656	5689.552065865019	1
0	16663	5690.346188934572	2
0	16664	5691.371147833004	1
0	16669	5691.500520843311	0
0	16688	5696.806051067689	1
0	16693	5699.193310876537	0
0	16724	5713.518129342658	1
0	16728	5715.535854533291	2
0	16731	5721.362745585262	1
0	16736	5722.706136465388	0
0	16746	5724.000672404773	1
0	16751	5725.45423945338	2
0	16752	5727.255814900087	1
0	16757	5728.179978255308	0
0	16788	5740.106928238613	1
0	16790	5740.878880275664	2
0	16792	5742.811829830003	3
0	16799	5745.867939420486	2
0	16805	5747.063793709284	3
0	16806	5747.366523796437	2
0	16816	5751.164916711548	1
0	16820	5753.86892787194	2
0	16823	5755.994754366912	1
0	16829	5757.185501228451	2
0	16830	5757.665922442614	1
[...]
4	71968	25141.683563196771	9187.9710537613
4	71975	25143.913313448558	9176.0367772704
4	71988	25149.664709692657	9175.214024895
4	71997	25151.512343896635	9175.6019232584
4	72004	25155.139153557301	9153.5130862908
4	72013	25158.104028908084	9153.5257898822
4	72018	25164.639827960411	9158.6399747173
4	72023	25165.7957035084	9149.7952268402
4	72030	25167.716555208636	9146.4076631076
4	72049	25174.282621225442	9135.7719700411
4	72119	25196.594842804721	9150.7803682168
4	72129	25197.841377223705	9144.461288316
4	72147	25209.217510726159	9148.4389090681
4	72185	25223.623071821356	9161.0546485171
4	72199	25232.637131549781	9154.0321600338
4	72215	25238.725052466479	9140.8963880979
4	72243	25246.033055641326	9140.8321247892
4	72248	25246.577132172199	9133.9687259009
4	72261	25253.499976663291	9135.9275282797
4	72288	25262.311733063151	9130.1433780819
4	72297	25267.494267196824	9133.8986373445
4	72316	25272.987751828611	9133.4104956053
4	72323	25278.612425057922	9126.8907643507
4	72371	25292.620243052139	9132.7944106012
4	72439	25313.514262764336	9149.5191579687
4	72446	25315.81247319577	9147.0518710769
4	72463	25320.242096655535	9150.4278476139
4	72468	25321.732532478354	9148.4062174075
4	72473	25322.526197334402	9141.7536952398
4	72480	25324.477572050613	9137.2632332599
4	72489	25326.815450489725	9138.1071114995
4	72501	25330.177111214227	9114.9464457835
4	72523	25341.443159247828	9113.7512552173
4	72566	25356.184180212895	9126.8714460178
4	72574	25360.37424202732	9130.3181303741
4	72667	25386.335385434047	9148.9354234932
4	72672	25386.815029846076	9142.9760879366
4	72685	25393.366546551138	9143.169814739
4	72723	25408.918976287198	9151.6048487935
4	72748	25411.606608630307	9153.7339975459
4	72762	25419.763060861396	9160.2161002707
4	72809	25433.889850732135	9172.5359009644
4	72822	25434.392033967017	9157.1603738656
4	72849	25440.687324926645	9163.3150275967
4	72861	25443.031566475055	9161.7503972956
4	72873	25447.063210475713	9159.6653840259
4	72890	25448.523368366453	9158.8436700804
4	73986	25870.709676627581	9567.9949864256
4	73992	25871.760500950011	9561.2909779515
4	73997	25872.653342093303	9559.9193007933
4	74004	25877.97087914208	9555.9188211862
4	74014	25881.323226588324	9556.3919390643
4	74022	25885.9931838327	9560.4779475138
4	74027	25887.654507304805	9560.7717578995
4	74032	25889.595584311169	9561.0556107207
4	74039	25893.509946546934	9562.2014376662
4	74050	25898.024656143031	9564.3966308474
4	74055	25899.620537650854	9547.3730200409
4	74060	25900.833389806069	9527.4738894993
4	74069	25903.699833680782	9526.4339886923
4	74189	25935.065902575997	9557.3131318961
4	74221	25943.255991231302	9564.3877194931
4	74234	25946.470040943304	9559.037236411
4	74239	25947.685456995161	9537.9851843869
4	74253	25958.116644932035	9548.333282414
4	74266	25962.715041481331	9549.6192244618
4	74291	25971.420125313111	9556.6664893272
4	74470	26041.608518541691	9623.5247368787
4	74809	26164.912742397677	9744.6389783278
4	74822	26168.045454904231	9735.9122801822
4	74833	26176.853682803322	9743.9716666114
4	74840	26180.348316838112	9733.7429250882
4	74851	26183.670186026607	9729.3262439273
4	74863	26187.917086234415	9724.185037893
4	74926	26208.154535725404	9743.8434270054
4	74956	26215.37070267918	9743.172567916
4	75144	26303.402944416471	9825.1075992851
4	75149	26303.803008594418	9819.0815793841
4	75155	26307.770474437818	9820.6948652848
4	75162	26309.335320943701	9813.3666354732
4	75175	26317.659097910271	9818.7042183832
4	75180	26318.83287198378	9817.243544547
4	75187	26321.357905236461	9814.4052616676
4	75220	26330.341397821904	9820.3101269131
4	75238	26332.928706654321	9821.9419748365
4	75243	26333.66020323173	9821.7360155723
4	75251	26335.081585543854	9821.3144134285
4	75258	26341.881703353638	9827.6853229903
4	75345	26366.625146131379	9848.9088190567
4	75355	26370.767312114763	9845.5350619136
4	75369	26380.673699328552	9853.9123125955
4	75866	26556.71700169822	10024.165843786
4	75874	26561.46718874109	10023.191768636
4	75884	26566.297853178616	10027.679050722
4	75982	26602.302472519209	10062.804655343
4	75987	26603.27471683784	10047.188691492
4	75994	26604.312402812722	10047.346115545
4	76096	26639.715380797665	10064.146513393
4	76106	26641.274010812432	10059.233314043
4	76121	26644.34168804886	10043.496187249
4	76242	26691.072385703748	10089.638104054
4	76248	26692.159246168531	10088.718868094
4	76253	26693.474390874578	10089.353285241
4	76258	26693.840026133301	10080.778911953
4	76267	26695.976381837579	10078.422428469
4	76279	26696.96300973806	10062.383304327
4	76285	26701.22236125203	10063.257993637
4	76290	26702.946960461431	10049.274569799
4	76301	26706.580514070761	10040.454533178
4	76364	26726.660059055004	10059.117347827
4	76377	26731.336287682819	10055.158568225
4	76408	26738.861077626181	10062.259241887
4	76433	26749.880045368345	10072.486485741
4	76488	26776.155099661611	10093.600113399
4	76523	26790.174250924713	10091.657530293
4	76585	26817.830568794476	10112.123841353
4	76618	26822.213046259834	10109.953087506
4	76628	26826.825634966498	10108.176794212
4	76639	26831.114437689669	10108.024003528
4	76648	26833.068488018985	10103.134785887
4	76653	26835.662939915765	10097.883897848
4	76664	26845.875665792839	10107.244338747
4	76705	26857.015067975372	10116.555971506
4	76717	26860.170354090306	10115.859039593
4	76726	26863.630317112621	10105.999628543
4	77327	27102.165027140828	10331.633608337
4	77332	27102.512318470442	10331.737208787
4	77341	27103.809953691151	10331.931526824
4	77356	27108.450458511558	10329.719044802
4	77361	27108.977007910987	10329.960837481
4	77376	27120.050925312799	10337.189073139
4	77466	27148.494505599851	10358.395885609
4	77568	27192.190741844284	10401.380393854
4	77587	27197.200113711467	10381.56547327
4	77592	27198.218721705321	10350.506709896
4	77600	27201.465732056911	10345.985685752
4	77653	27216.846136212066	10357.851820064
4	77658	27217.176381650513	10355.647030172
4	77671	27225.747372451362	10363.845662184
4	77683	27227.541232952741	10363.668107691
4	77688	27230.458297230261	10360.798211385
4	77697	27234.999573306124	10362.866497095
4	77714	27241.796902389748	10366.067922733
4	77746	27251.851704396367	10373.488537278
4	77757	27254.67743728668	10373.587852478
4	77793	27266.063913740539	10382.302046323
4	77802	27270.666770523378	10386.500732871
4	77835	27279.225016472034	10385.79024703
4	77873	27288.933148224773	10392.283674578
4	77884	27292.145027267531	10391.489642826
4	77926	27305.604790783659	10399.882023092
4	77931	27305.707919621263	10393.755795369
4	77936	27307.513711964144	10395.233176492
4	77941	27310.361685359741	10361.930434513
4	77950	27314.565831953186	10359.957583827
4	78064	27357.415837518397	10401.011810667
4	78069	27359.257474881768	10399.470698878
4	78084	27368.584574815477	10403.74904083
4	78136	27381.652952812078	10393.61783876
4	78147	27383.620590007175	10389.664208686
4	78154	27386.397829979736	10391.692873627
4	78177	27403.714076424916	10405.857986913
4	78218	27422.97361668841	10423.074402827
4	78244	27436.17719570992	10431.609977004
4	78518	27542.214913736709	10522.884347837
4	78525	27543.397614881551	10519.012993281
4	78547	27550.358467283325	10516.22080109
4	78558	27557.442173039567	10517.147142192
4	78575	27558.776597486846	10513.811100084
4	78594	27566.1339849206	10517.587753742
4	78645	27584.699601170519	10534.735494076
4	78710	27607.784768239328	10553.860367924
4	78728	27611.623252353062	10551.484063525
4	78757	27618.529020683916	10539.928753577
4	78778	27622.783562880978	10541.037280649
4	78785	27625.292055344596	10529.220238916
4	78804	27634.819461371483	10526.232222453
4	78835	27642.691953316336	10533.354946625
4	78864	27654.473678386676	10535.751478979
4	78889	27666.201763123918	10541.375235215
4	78902	27675.907511019495	10539.148177205
4	78943	27686.903303398303	10549.986035844
4	78948	27687.274940926893	10530.268512252
4	78953	27688.149275542844	10527.809560955
4	78961	27691.005864468228	10528.523977899
4	78999	27702.911522983103	10537.434909751
4	79004	27703.551221900917	10532.541358154
4	79009	27704.181801801286	10532.917876886
4	79016	27706.131215670573	10525.799204627
4	79072	27716.756632746769	10530.430498959
4	79084	27718.61726225229	10531.176434427
4	79090	27720.413653196958	10530.292390118
4	79099	27722.895597564068	10532.350043711
4	79104	27723.924865713294	10527.174630134
4	79110	27726.144647412265	10523.481291947
4	79119	27729.592821598659	10522.791301013
4	79142	27738.550885793389	10531.113314886
4	79155	27742.265930389878	10530.935539052
4	79202	27752.275033427747	10537.218694382
4	79209	27752.6264571006	10536.294970965
4	79217	27756.986057654695	10539.801127707
4	79222	27757.268309013475	10538.823367027
4	79227	27757.490077211122	10530.720335835
4	79232	27758.55102442605	10531.750974957
4	79237	27758.870238490674	10531.012354175
4	79248	27761.843997246819	10521.424809753
4	79279	27769.420219080637	10513.874493203
4	79292	27772.588173383508	10514.096264809
4	79300	27776.117536643345	10501.098802957
4	79305	27776.607484494789	10498.293820652
4	79318	27780.096967996547	10500.398406059
4	79339	27783.470388498086	10503.5636447
4	79358	27788.015632587268	10506.215963127
4	79559	27849.036115886119	10566.187625061
4	79570	27854.052286447474	10568.551204671
4	79595	27861.854303274331	10573.768425152
4	79634	27874.28926122668	10572.685519155
4	79648	27880.788980643381	10574.774389244
4	79670	27885.165349095649	10559.034337518
4	79681	27886.089921703968	10558.39289496
4	79686	27886.140680913106	10548.574502336
4	79695	27891.124027115308	10552.994066159
4	79702	27892.88211014974	10553.95196202
4	79711	27894.863953054322	10550.759882579
4	79742	27907.760664686104	10563.357914625
4	79749	27908.492872124966	10563.532732706
4	79771	27913.777176516297	10550.608660156
4	79784	27920.374454670602	10542.955269204
4	79803	27929.668161621612	10551.571002902
4	79847	27945.331324365276	10566.3313246
4	79941	27965.82693767292	10586.651072941
4	79946	27966.643285566748	10578.151167218
4	79957	27974.667742891592	10586.110404203
4	80030	27994.283988282444	10603.457713242
4	80085	28009.82595750035	10616.916303694
4	80105	28018.027271331438	10621.075388052
4	80136	28028.918066909631	10630.285862515
4	80147	28033.266560478352	10633.13656935
4	80187	28051.402275676066	10645.007816361
4	80192	28051.680990059079	10615.605259254
4	80197	28054.043203388392	10615.346408301
4	80204	28056.798878202973	10614.302277069
4	80215	28057.732201906089	10611.103499187
4	80227	28062.924646904973	10603.093385436
4	80314	28089.41132262362	10619.822852697
4	80325	28091.113984449154	10620.487639448
4	80354	28098.977790099185	10623.202481718
4	80359	28103.020765324985	10626.415089602
4	80373	28109.593723087676	10632.251748366
4	80495	28142.190125256708	10653.869292673
4	80502	28146.772910045502	10652.886907177
4	80509	28149.422992600268	10642.6451879
4	80522	28153.141512819121	10645.943405279
4	80547	28162.679081090832	10639.753434574
4	80570	28169.535683766293	10641.471944662
4	80579	28175.179292385775	10640.821423116
4	80690	28224.88308051419	10688.917572849
4	81087	28366.628404414732	10819.290330869
4	81194	28404.789995162939	10855.312122443
4	81201	28406.939561440058	10853.234100695
4	81206	28408.887890303183	10847.805476872
4	81211	28409.930804272139	10846.894749491
4	81224	28424.917110910924	10855.472793764
4	81253	28430.263586478008	10858.302524428
4	81265	28432.734538046927	10859.191365698
4	81272	28433.792511016919	10859.212353247
4	81290	28439.169397271434	10859.643749358
4	81325	28452.321171952168	10858.738393555
4	81332	28455.541857710433	10857.277315257
4	81354	28463.610183148338	10864.61760796
4	81597	28562.023187828088	10959.336102232
4	81602	28562.639656915011	10958.110113581
4	81607	28564.346525417072	10956.544566523
4	81613	28566.639406100013	10956.853015696
4	81618	28567.52875411596	10941.686952391
4	81625	28568.313459794825	10942.46436573
4	81635	28570.834753334413	10943.159831963
4	81640	28572.117786799802	10938.51097994
4	81648	28574.615495225627	10935.253966208
4	81659	28578.196902404062	10932.450821435
4	81667	28582.853649224685	10936.320360818
4	81672	28584.258778595599	10929.442238652
4	81677	28588.405370817718	10932.071166054
4	81684	28592.709905110288	10935.007545634
4	81700	28595.723992246271	10935.834478468
4	81706	28598.22389864276	10932.10753541
4	81721	28602.846546024976	10930.723360449
4	81739	28606.870906168733	10930.386676133
4	81744	28608.724600962064	10929.57253409
4	81757	28612.501318463703	10925.66851313
4	81773	28613.713907835874	10918.087777748
4	81787	28621.469100984617	10925.487626451
4	81792	28623.480984215142	10926.418984208
4	81803	28625.601908533908	10921.257016823
4	81839	28640.461929175559	10932.819036225
4	81859	28645.036582923552	10936.618212695
4	81868	28648.041212579199	10936.157760984
4	81881	28652.371616751862	10937.844429036
4	81910	28660.579233544387	10945.502711764
4	81917	28663.758503483886	10941.97967209
4	81949	28674.489403805271	10952.333792889
4	81958	28676.410991401356	10943.252879818
4	81965	28677.384520575807	10937.470848098
4	81974	28680.302332700932	10940.303927503
4	81993	28691.197203246174	10948.581701538
4	82067	28716.751411551664	10968.632241604
4	82076	28722.142075415872	10973.053158795
4	82194	28756.598944007307	11006.252466121
4	82212	28761.61886553148	11008.916822438
4	82238	28774.911787336787	11017.909055314
4	82246	28776.961472211967	11015.736174718
4	82256	28781.994074120626	11018.481526664
4	82285	28788.659971519931	11018.970049759
4	82296	28795.566909913797	11025.169277661
4	82316	28799.097561546211	11011.689144486
4	82707	28939.12160229963	11145.340795872
4	82714	28940.461066013808	11143.524944965
4	82735	28944.919686530789	11143.367459029
4	82745	28947.032538345988	11138.79793591
4	82761	28949.040408011878	11133.89121555
4	82769	28952.380052034711	11135.753179254
4	82793	28960.086784824068	11142.28838308
4	82829	28970.956071123579	11153.102162863
4	82844	28978.029122002207	11149.551853903
4	82858	28984.771025911024	11147.73645725
4	82866	28986.194463044992	11147.657718601
4	82871	28987.388787896167	11148.235736617
4	82876	28987.581995210635	11143.997133156
4	82887	28997.354500888881	11153.616057608
4	82920	29007.91804510986	11163.166886325
4	82945	29013.720886590738	11165.363132196
4	82952	29014.946725731152	11156.554168426
4	82978	29020.104995270811	11160.646979591
4	82986	29024.732386752147	11164.188931448
4	82991	29024.939159068506	11161.622440229
4	82996	29024.999579064994	11157.392302889
4	83003	29030.946309926234	11159.945863416
4	83063	29050.817417100354	11175.442235332
4	83082	29061.148642890133	11160.994907664
4	83088	29065.02524083592	11160.677569759
4	83101	29069.091387621153	11160.076631359
4	83219	29111.574606520096	11183.601840494
4	83261	29119.305352515952	11189.417972148
4	83275	29126.972289231628	11193.446769302
4	83304	29137.638205782118	11194.896285231
4	83309	29138.451061870272	11191.37362607
4	83326	29147.687458928152	11200.254978488
4	83359	29153.062776133809	11204.548209457
4	83387	29168.457400024193	11218.636721938
4	83396	29170.977787472476	11217.589743188
4	83403	29172.597237381214	11215.147841935
4	83408	29172.956162538584	11201.691655967
4	83413	29174.012425349094	11200.240462631
4	83422	29180.324723249647	11201.582148401
4	83448	29189.15951187299	11205.574027587
4	83454	29192.831414729545	11205.797109406
4	83460	29193.406332470928	11203.831015172
4	83465	29193.409678032773	11196.603542566
4	83470	29195.756029994601	11197.940795798
4	83475	29196.682307803355	11191.835779014
4	83484	29200.66525346694	11164.165927664
4	83489	29203.761715714933	11160.839134432
4	83494	29207.387629333037	11153.467169947
4	83501	29209.212769988157	11155.224354242
4	83513	29211.203470492243	11153.504117479
4	83523	29213.71399604678	11134.405911411
4	83541	29216.323158575273	11097.184327885
4	83580	29226.804854702573	11105.290345785
4	83596	29229.93706429002	11107.207834464
4	83651	29241.312525111796	11118.504484819
4	83663	29244.178542363762	11113.07085497
4	83668	29245.062966595122	11102.526511725
4	83677	29249.091695360031	11102.537989654
4	83682	29251.583420467375	11087.889725946
4	83689	29255.159443744902	11086.86980382
4	83700	29261.103043014046	11091.188510677
4	83720	29269.429883621125	11086.648211615
4	83769	29284.503902263464	11089.999144373
4	83774	29285.338231114187	11090.242273878
4	83781	29288.805295130734	11079.725147598
4	83786	29290.312420901511	11080.273989972
4	83795	29295.827741744903	11078.067808635
4	83806	29298.73430226121	11076.846259636
4	83820	29307.671621871003	11065.000185045
4	83850	29314.472547389109	11071.211878147
4	83858	29315.884805200306	11060.04385437
4	83870	29318.86923125617	11062.123161822
4	83897	29328.87584372442	11072.097063438
4	83902	29334.228348392247	11067.529531245
4	83909	29336.56717488051	11069.660124583
4	83966	29351.238750417419	11078.392130986
4	83978	29352.578380399729	11076.692943271
4	83993	29358.357044331113	11081.608705848
4	84005	29364.146826197324	11079.1345167
4	84046	29373.463061774208	11087.860142692
4	84057	29375.233807879616	11086.943873063
4	84094	29385.728937813978	11091.891908682
4	84099	29385.77651159616	11089.781556919
4	84109	29389.146867865528	11091.960319721
4	84120	29392.395769656773	11087.433658473
4	84125	29394.54520725932	11089.493508949
4	84138	29398.446685087538	11089.289956951
4	84153	29405.671885701118	11088.326624568
4	84166	29407.26992160022	11088.758878835
4	84173	29407.818878382014	11086.033646802
4	84179	29410.644802578592	11067.616551542
4	84184	29413.050126777208	11068.629839002
4	84189	29413.477967433902	11066.574316883
4	84212	29426.043346686266	11068.510525252
4	84297	29448.310704164768	11079.090684837
4	84304	29455.018470924757	11072.864512676
4	84315	29458.516173703247	11072.442832125
4	84344	29468.548826661358	11070.673478555
4	84351	29468.640522403348	11055.999294101
4	84395	29482.431671037085	11069.608490698
4	84404	29490.488577226121	11077.345110806
4	84430	29497.777150388157	11083.276236444
4	84439	29503.578767140419	11084.575908967
4	84455	29510.247317255107	11088.331017231
4	84464	29514.348677912908	11083.429118272
4	84759	29621.00187677574	11177.398882089
4	84768	29622.536766244012	11174.551095442
4	84804	29633.057082662636	11177.56235725
4	84818	29635.901238763997	11166.718563652
4	84823	29639.109394434059	11164.564448972
4	84835	29643.697849907504	11163.23614062
4	84861	29654.22395534933	11171.692636447
4	84890	29665.523509439279	11177.939966972
4	84899	29668.097995654257	11176.409835637
4	84918	29674.17488871016	11170.368645539
4	84931	29683.164151021763	11164.126788994
4	84936	29685.103471153013	11161.692091298
4	84941	29687.09099517073	11141.518847359
4	84948	29690.3006913093	11135.439069328
4	84990	29701.959691201688	11130.775880105
4	85003	29706.427729510082	11131.470887403
4	85019	29707.788478536121	11122.697390647
4	85028	29713.372734836776	11126.29868006
4	85039	29715.839709668727	11127.41703587
4	85101	29736.281103349224	11135.756813119
4	85206	29772.52481402395	11170.261170773
4	85218	29777.185753457187	11170.795949295
4	85225	29778.276734599947	11170.209646375
4	85232	29783.15350229821	11173.587085178
4	85245	29787.590027614719	11175.993810303
4	85254	29791.383699526906	11174.816420772
4	85277	29796.165746451934	11178.967600319
4	85290	29798.634943631766	11179.935738202
4	85303	29807.889874250256	11174.289530676
4	85378	29834.554098906478	11195.443294493
4	85383	29835.200055290195	11185.56955184
4	85388	29837.862770296857	11185.598430708
4	85393	29839.275102154802	11181.267290858
4	85402	29845.22377216375	11180.545341282
4	85449	29863.057306489029	11197.838162633
4	85460	29864.515857024024	11196.115226265
4	85468	29866.714125982319	11195.332240864
4	85612	29916.737428381137	11235.56069722
4	85623	29919.475106996386	11237.294229851
4	85628	29922.859478442179	11225.833213777
4	85633	29925.437609293582	11227.643446947
4	85640	29930.305840273909	11232.146939525
4	85662	29936.367744289868	11230.141350205
4	85712	29951.231942004541	11238.921189833
4	85717	29951.280552444628	11237.618641297
4	85730	29954.595736122455	11239.780777504
4	85770	29971.456348915671	11255.031344682

