version 2
run Third-n5-6-20191016-17:04:53-9768
attr configname Third-n5
attr datetime 20191016-17:04:53
attr experiment Third-n5
attr inifile omnetpp.ini
attr iterationvars ""
attr iterationvarsf ""
attr measurement ""
attr network org.omnetpp.queueing.Pizza
attr processid 9768
attr repetition 6
attr replication ""
attr resultdir results
attr runnumber 6
attr seedset 6
param **.PS.maxInventoriedPS 5
param **.U1.interArrivalTime exponential(4s)
param **.U2.interArrivalTime exponential(6s)
param **.PS.serviceTimeForInventoryU1 exponential(1.4s)
param **.PS.serviceTimeForInventoryU2 exponential(1.4s)
param **.PS.serviceTimeDirectU1 exponential(1.8s)
param **.PS.serviceTimeDirectU2 exponential(1.8s)
param **.PS.probabilityProducing 0.8
param **.CS.serviceTimeU1 exponential(2.3s)
param **.CS.serviceTimeU2 exponential(2.3s)

vector 0 Pizza.EntryQueueU1 queueLength:vector ETV
attr interpolationmode sample-hold
attr title "queue length, vector"
vector 1 Pizza.CS queueLength:vector ETV
attr interpolationmode sample-hold
attr title "queue length, vector"
vector 2 Pizza.EntryQueueU2 queueLength:vector ETV
attr interpolationmode sample-hold
attr title "queue length, vector"
vector 3 Pizza.sink lifeTime:vector ETV
attr interpolationmode none
attr title "lifetime of arrived jobs, vector"
attr unit s
vector 4 Pizza.sink lifeTimeU1:vector ETV
attr interpolationmode none
attr title "lifetime of arrived jobs, vector"
attr unit s
vector 5 Pizza.sink lifeTimeU2:vector ETV
attr interpolationmode none
attr title "lifetime of arrived jobs, vector"
attr unit s
0	0	0	0
0	16	10.9673232238	1
0	17	11.796376726956	0
0	24	13.990789176693	1
0	26	16.543405505668	0
0	39	19.316227995523	1
0	40	23.326989105443	0
0	52	26.172271768259	1
0	54	26.396329469613	2
0	59	30.766858664743	1
0	65	30.877733049412	2
0	67	31.411054935212	3
0	69	31.765685925172	4
0	72	32.740050436408	3
0	77	34.158306945104	2
0	82	34.837256912482	1
0	90	37.934295711718	0
0	105	44.412577872091	1
0	107	46.520427397567	0
0	113	46.94958349394	1
0	115	47.897541320916	0
0	152	59.447397399422	1
0	155	61.709045607379	0
0	162	63.265694903718	1
0	168	70.340976589943	0
0	181	71.871300238378	1
0	182	74.121899774258	0
0	195	78.864566870863	1
0	196	79.345876279648	0
0	204	80.207294617599	1
0	205	80.540418274614	0
0	220	84.793723541335	1
0	222	84.962746868213	2
0	225	85.778697151421	1
0	231	86.864537297736	0
0	258	97.152378533259	1
0	260	98.66808162934	2
0	262	100.202511247307	3
0	263	103.062845317794	2
0	271	105.556937705304	1
0	280	108.154496645747	2
0	281	109.607633658494	1
0	289	111.510472505646	0
0	303	114.528852989352	1
0	304	115.534532369732	0
0	311	117.824384142742	1
0	313	118.812482921283	0
0	339	123.991610719022	1
0	341	124.47088364239	2
0	343	126.161374494894	3
0	345	126.420707383318	4
0	346	126.805691642169	3
0	352	127.748834068142	4
0	353	128.334113143278	3
0	359	128.427513974346	2
0	367	129.483690626743	3
0	368	133.927890872922	2
0	373	134.38521911947	1
0	378	134.45732105969	0
0	398	141.154555838742	1
0	399	142.259214801758	0
0	452	160.69358315087	1
0	454	163.611241326784	2
0	456	163.718270131048	3
0	459	165.025279721392	2
0	464	165.378406095108	1
0	469	168.095420317807	0
0	484	172.24028017746	1
0	490	176.849763992902	0
0	502	182.04376914971	1
0	503	182.471753570591	0
0	509	183.082733237556	1
0	510	183.140417097514	0
0	525	190.133891773662	1
0	527	191.255875022432	2
0	535	192.362198440074	3
0	537	192.419837556603	4
0	538	194.238687121998	3
0	544	194.608975099027	4
0	546	195.486955139193	3
0	552	195.613438556142	4
0	555	198.627149951494	3
0	561	199.184863061628	2
0	566	199.203093044925	1
0	573	201.080275589191	2
0	576	205.641155020888	3
0	577	206.312597748325	2
0	582	208.025469435428	1
0	588	209.093609771585	2
0	592	210.419318310652	1
0	602	215.398571292378	2
0	605	216.041722600998	1
0	619	222.62665940244	0
0	631	225.072899042757	1
0	632	225.431430976491	0
0	657	231.846043541608	1
0	659	234.342522667878	2
0	666	240.44570081402	1
0	672	243.259354922599	0
0	679	243.674049616696	1
0	680	245.435820942909	0
0	699	251.30259688838	1
0	701	252.761351895063	2
0	704	253.305597169559	1
0	709	253.336799811811	0
0	761	270.504789186565	1
0	762	271.215066897658	0
0	773	273.318061195566	1
0	779	276.630674447383	0
0	826	289.198762636268	1
0	830	289.457870502878	2
0	833	290.99027935466	3
0	834	292.357378045925	2
0	841	293.513462676614	1
0	846	293.906020258137	0
0	867	298.090344168452	1
0	872	303.747471673396	0
0	889	307.753970595534	1
0	891	308.81697169813	2
0	897	312.780518535756	1
0	905	314.265175311526	0
0	911	314.715686562706	1
0	917	316.577935884723	0
0	944	323.907399541819	1
0	945	324.48404529582	0
0	951	325.899015975802	1
0	953	326.780157165689	0
0	992	351.205770628236	1
0	993	352.673297257459	0
0	1004	354.6098080524	1
0	1006	355.642506336556	0
0	1015	357.60714031052	1
0	1017	359.274565933218	0
0	1030	363.605139170661	1
0	1033	366.256410864553	0
0	1043	369.615405643065	1
0	1046	372.899591693656	2
0	1047	373.131898450425	1
0	1053	373.254721393671	2
0	1059	374.767231772337	3
0	1060	375.216249016153	2
0	1065	375.435222471888	1
0	1079	377.922072828614	2
0	1080	378.211870631864	1
0	1086	379.588315232261	0
0	1103	382.332859959087	1
0	1107	383.389392990222	2
0	1109	383.422523550335	3
0	1112	386.631940265269	2
0	1121	387.581382844251	1
0	1138	394.377641623604	2
0	1140	394.626894372672	3
0	1141	395.770450260846	2
0	1146	396.817432588366	1
0	1154	400.22135499808	0
0	1172	401.46904310343	1
0	1173	404.152049855041	0
0	1180	405.923236702097	1
0	1182	406.171987903401	2
0	1183	406.701663322303	1
0	1188	408.185187630631	0
0	1198	411.43610160246	1
0	1199	413.251893132646	0
0	1214	420.457925842493	1
0	1218	421.90720478489	2
0	1219	422.847072983918	1
0	1228	425.657559591112	0
0	1234	425.933271570141	1
0	1237	427.02680834809	2
0	1240	428.590106530461	3
0	1241	428.667046083475	2
0	1246	428.7252765484	1
0	1251	428.743957691342	0
0	1259	429.340349937063	1
0	1261	429.417542313391	0
0	1286	437.005885111993	1
0	1287	437.697844605845	0
0	1299	438.164140250698	1
0	1301	438.225940564917	2
0	1307	440.431732094012	3
0	1309	443.142019010506	4
0	1311	443.405166861189	5
0	1313	444.004134329016	6
0	1315	444.617722816064	7
0	1318	446.658335251442	6
0	1325	448.194940043249	7
0	1327	448.551727249008	8
0	1328	450.251118672263	7
0	1333	450.427670414875	6
0	1339	451.344747573167	5
0	1345	451.644780017549	4
0	1352	452.659916992114	5
0	1353	453.316515587058	4
0	1359	454.187619709374	3
0	1366	456.297698630531	2
0	1372	456.527378459854	3
0	1373	458.171124453127	2
0	1380	459.918667801812	1
0	1387	461.342723534014	0
0	1393	461.9963997632	1
0	1394	462.729845047995	0
0	1446	477.827179179787	1
0	1448	479.064800925746	2
0	1450	479.731712190467	3
0	1452	480.996382826409	4
0	1453	481.124356654719	3
0	1460	481.870296085178	4
0	1462	485.38099517148	5
0	1464	485.572537232277	6
0	1465	486.26953952517	5
0	1472	487.620354523798	6
0	1473	488.045238630784	5
0	1479	488.730622803617	4
0	1486	490.378402663259	3
0	1491	490.529336039174	2
0	1500	492.48174237988	1
0	1505	492.582797665485	0
0	1551	508.212537714077	1
0	1553	509.475340668118	2
0	1558	518.508361617464	1
0	1563	519.949470121907	0
0	1575	522.390190794389	1
0	1577	524.570315236178	2
0	1579	524.579410119554	3
0	1582	526.928253926456	2
0	1587	527.719846213571	1
0	1593	528.602016326758	2
0	1596	529.387878875678	3
0	1598	530.323778159071	2
0	1603	530.556057142982	1
0	1609	530.597682535522	2
0	1611	530.913938540216	3
0	1613	531.198904032475	4
0	1614	531.298790781682	3
0	1620	532.35485394301	4
0	1621	532.394411257484	3
0	1627	532.885304541564	2
0	1632	533.39806822271	1
0	1642	539.723557397853	2
0	1644	541.940332050056	1
0	1651	545.1812397722	0
0	1663	548.147187679244	1
0	1665	548.466115072348	0
0	1685	552.762101687834	1
0	1686	552.914198588871	0
0	1697	555.608641221378	1
0	1702	559.966936757583	0
0	1773	586.348178574391	1
0	1775	586.420560485477	2
0	1776	586.894532705414	1
0	1782	587.328563460917	0
0	1799	590.016282285705	1
0	1800	590.312700180818	0
0	1815	595.413322071244	1
0	1816	595.614814775514	0
0	1844	601.647414147174	1
0	1845	601.810593457489	0
0	1887	613.308469374877	1
0	1889	615.815018110282	2
0	1891	616.15654083659	3
0	1892	616.234753361873	2
0	1900	617.749903438491	1
0	1906	617.835665236988	2
0	1907	618.013034927544	1
0	1917	620.271763647693	2
0	1918	624.124918293977	1
0	1927	624.928112676195	2
0	1932	632.035435191411	1
0	1938	635.575408864817	0
0	1955	641.998745297502	1
0	1956	642.001079117649	0
0	1962	642.067215859266	1
0	1965	645.157305393269	0
0	2010	659.461094085612	1
0	2016	661.754143327682	2
0	2018	664.844591494631	3
0	2021	665.781796623643	2
0	2030	672.487284660979	3
0	2033	677.193712642425	2
0	2039	678.699694458508	1
0	2045	679.7164408269	2
0	2049	683.430839705129	1
0	2056	684.440262241475	0
0	2062	684.62803802855	1
0	2065	685.915959274653	2
0	2066	686.536355199214	1
0	2072	687.910509707979	0
0	2092	692.794830734734	1
0	2096	694.78189337681	2
0	2097	696.009399280157	1
0	2103	696.725023793586	0
0	2117	699.799280435634	1
0	2121	703.936240840658	2
0	2125	704.732418077498	3
0	2127	706.116680864041	4
0	2134	707.609833023328	5
0	2138	710.859512093648	6
0	2140	711.815139998408	7
0	2141	712.54597358176	6
0	2146	712.653806104683	5
0	2155	714.871635120451	4
0	2161	716.733534765355	3
0	2171	722.856479084201	2
0	2178	723.668119823959	1
0	2184	726.613085174915	0
0	2190	726.981367618615	1
0	2191	727.176020872724	0
0	2224	736.548766464101	1
0	2226	736.629733859439	2
0	2228	736.869630948885	3
0	2229	739.618093698319	2
0	2236	742.46156699394	3
0	2239	746.729140269655	2
0	2244	747.036232464716	1
0	2250	747.487218658957	2
0	2252	750.546610846326	3
0	2254	751.212655662144	4
0	2256	752.765227708099	3
0	2264	755.912115551956	2
0	2276	759.757937180984	1
0	2281	759.875295053996	0
0	2311	764.489133432819	1
0	2312	764.729260928672	0
0	2318	764.746384629771	1
0	2323	766.078333221564	2
0	2326	770.779877186087	1
0	2334	774.064898502224	2
0	2336	775.220397377719	3
0	2337	776.520151939095	2
0	2343	778.333117139982	1
0	2349	779.018712241179	2
0	2351	779.62515161844	3
0	2357	784.710120802791	2
0	2363	786.180175205441	1
0	2370	788.656682942204	0
0	2381	789.279529327811	1
0	2383	790.210841261372	0
0	2400	794.231765152722	1
0	2401	796.268155554615	0
0	2409	797.661758615014	1
0	2414	800.417017103128	0
0	2430	806.317559617661	1
0	2433	808.113042387048	0
0	2448	811.762769651949	1
0	2449	812.105309050216	0
0	2461	815.745534131844	1
0	2462	816.13681567014	0
0	2471	817.281163744206	1
0	2475	817.980643707962	2
0	2477	818.58386029252	1
0	2482	820.097644532824	0
0	2488	820.514679971861	1
0	2490	820.767646626877	2
0	2492	820.838123218123	3
0	2496	823.893736929403	2
0	2508	826.097883982148	1
0	2513	826.36292897536	0
0	2519	826.454830596777	1
0	2522	826.707285133104	0
0	2528	827.077349810618	1
0	2532	827.775809050302	2
0	2539	832.768530522489	1
0	2545	833.151820426806	2
0	2546	833.709098394416	1
0	2552	833.927998735449	2
0	2556	836.668198447979	3
0	2559	837.322118333203	2
0	2566	838.600033228226	3
0	2568	838.930242476644	4
0	2569	839.330550753463	3
0	2575	840.258811127064	4
0	2579	841.289760472056	5
0	2580	841.467724461954	4
0	2587	842.386482057819	3
0	2593	842.455468347989	2
0	2599	847.565217607318	1
0	2606	849.80220100855	0
0	2620	855.140285976189	1
0	2622	857.067972270593	2
0	2624	858.207500729203	3
0	2628	862.462771358585	4
0	2632	863.899838839908	5
0	2634	864.255005388134	6
0	2636	864.99097399378	7
0	2637	865.226404679253	6
0	2646	867.272519553395	7
0	2648	868.555366654583	8
0	2654	869.700418883898	7
0	2660	870.098370091015	8
0	2661	870.167800733689	7
0	2667	871.551865550299	6
0	2672	871.590860976596	5
0	2678	871.592712422632	6
0	2679	872.170771157493	5
0	2685	872.6094547605	4
0	2696	882.881475832358	3
0	2702	886.561165557601	4
0	2703	887.975567279409	3
0	2707	889.514703835084	4
0	2709	892.493217554597	5
0	2711	893.197714619958	6
0	2713	893.568174606164	7
0	2717	894.5908079238	8
0	2726	901.717580702741	9
0	2728	901.761990853716	10
0	2730	903.94624044359	11
0	2731	905.085919069834	10
0	2737	905.771483865214	11
0	2741	908.378232327602	10
0	2746	908.969137070724	9
0	2752	910.603136916869	8
0	2757	911.097517728972	7
0	2762	912.48463214576	6
0	2771	914.409530131851	7
0	2774	917.366718046833	6
0	2779	918.357478499793	5
0	2784	918.54353681823	4
0	2792	920.449766161702	5
0	2795	922.392732516011	4
0	2799	922.90520070122	5
0	2803	925.703653771777	4
0	2809	925.864181833806	5
0	2813	927.70244446915	4
0	2821	930.602322794527	3
0	2826	931.007624898649	2
0	2831	932.287001975468	1
0	2835	933.188044972397	2
0	2838	938.931332683346	1
0	2848	941.731968913386	2
0	2850	942.92220099348	1
0	2857	944.068911691467	2
0	2858	944.756051799226	1
0	2866	950.013073847	0
0	2884	953.49337104296	1
0	2886	956.054622989693	0
0	2896	959.198046172623	1
0	2898	959.997965012119	0
0	2916	966.006071499221	1
0	2918	966.663867807457	2
0	2922	968.060546868884	3
0	2923	968.222523096098	2
0	2929	968.556401567519	1
0	2935	969.67051498044	0
0	2961	971.959734883913	1
0	2966	973.314848432638	0
0	2973	975.317240741166	1
0	2975	976.531317689288	2
0	2977	977.444319662656	3
0	2979	979.714174930763	4
0	2983	981.21189645754	5
0	2984	982.554146617199	4
0	2990	984.373740410567	3
0	2998	984.762868447306	2
0	3005	987.854730438968	3
0	3007	989.059906024312	2
0	3012	989.186606142597	1
0	3019	990.142271181628	0
0	3055	998.979228301857	1
0	3058	999.783475157079	0
0	3067	999.94228582071	1
0	3072	1003.092701872013	0
0	3089	1008.37281275984	1
0	3090	1008.567100835433	0
0	3107	1012.996264196115	1
0	3112	1015.720298718785	0
0	3128	1019.009988541401	1
0	3134	1022.222459688058	0
0	3158	1035.04348506457	1
0	3159	1036.775884304626	0
0	3169	1044.288994410874	1
0	3176	1048.002646289225	2
0	3177	1049.451053540357	1
0	3184	1050.249124520009	2
0	3186	1051.455056895956	3
0	3187	1052.221483011196	2
0	3193	1053.22068418327	1
0	3198	1053.476171256936	0
0	3204	1054.625953590338	1
0	3208	1057.380195549676	2
0	3209	1057.420126707345	1
0	3214	1057.731340390215	0
0	3228	1059.476821396324	1
0	3231	1062.440977457397	0
0	3246	1074.678020368212	1
0	3248	1075.293359769463	2
0	3252	1076.577196153075	3
0	3253	1081.705625826632	2
0	3259	1085.836393438559	1
0	3264	1087.726893403883	0
0	3297	1095.657709317843	1
0	3301	1097.287426644041	2
0	3305	1098.076052338951	1
0	3310	1098.607384304372	0
0	3333	1108.021471825816	1
0	3336	1110.179260309867	0
0	3350	1114.379742450887	1
0	3352	1114.829611988908	2
0	3354	1117.220202170005	3
0	3360	1120.213302105154	4
0	3363	1123.563269994801	5
0	3367	1126.536838594145	6
0	3368	1129.348402013409	5
0	3374	1131.263508567422	4
0	3379	1131.286667945478	3
0	3387	1135.337204560296	4
0	3393	1137.793177313432	3
0	3399	1137.914276653667	4
0	3401	1138.883095711616	3
0	3407	1140.110039934942	2
0	3412	1142.23904827066	1
0	3417	1144.22645756154	0
0	3424	1147.864760786566	1
0	3425	1149.372304192654	0
0	3439	1150.716945538214	1
0	3442	1153.851512378908	0
0	3448	1154.28862270885	1
0	3450	1154.684961035855	0
0	3474	1159.607181251747	1
0	3478	1161.213756410684	2
0	3481	1162.562529886785	3
0	3483	1163.226403316142	4
0	3484	1163.266380709667	3
0	3489	1163.519623754624	2
0	3500	1167.653364313454	3
0	3503	1170.806897204399	2
0	3508	1172.247906636654	1
0	3516	1172.602497053341	2
0	3517	1172.992056964193	1
0	3523	1173.604217702138	2
0	3525	1175.444910356173	3
0	3527	1176.104799561386	2
0	3534	1176.829856136624	1
0	3542	1178.603274918647	0
0	3554	1179.856767818141	1
0	3555	1179.992806435099	0
0	3565	1184.408096562446	1
0	3566	1185.361560578847	0
0	3573	1185.681040005028	1
0	3575	1185.926295857044	2
0	3579	1187.237492109672	3
0	3580	1187.251373327806	2
0	3586	1188.102548310084	1
0	3594	1191.369890299283	2
0	3596	1191.549251458927	3
0	3599	1194.599759451673	2
0	3604	1194.701202645621	1
0	3610	1196.712108100856	0
0	3616	1196.78397639243	1
0	3619	1202.332005191291	0
0	3625	1203.606336976792	1
0	3626	1203.724257735085	0
0	3632	1205.812088929546	1
0	3633	1205.906171885829	0
0	3639	1206.821508738792	1
0	3644	1207.232274936469	0
0	3650	1207.827850590978	1
0	3655	1208.728242149441	2
0	3656	1210.563185120343	1
0	3662	1210.702118022385	2
0	3664	1215.811406926247	1
0	3669	1215.959823135208	0
0	3675	1218.001228447866	1
0	3677	1218.870047542195	0
0	3688	1220.089987158528	1
0	3693	1221.800232416054	0
0	3717	1226.702236913524	1
0	3721	1230.451381478664	0
0	3728	1232.499519745319	1
0	3729	1232.749460028709	0
0	3735	1232.868642399882	1
0	3736	1233.883486201856	0
0	3777	1247.819377829384	1
0	3778	1248.442141014927	0
0	3802	1260.014624595977	1
0	3804	1262.955561319109	2
0	3805	1265.041388965722	1
0	3811	1266.044038912459	0
0	3817	1266.249898303108	1
0	3819	1268.58712205744	0
0	3845	1275.108753654821	1
0	3847	1275.233198004698	2
0	3850	1275.664832343449	1
0	3855	1275.812508889823	0
0	3864	1276.762212529329	1
0	3870	1278.319799743507	2
0	3871	1278.428693812717	1
0	3881	1281.357872536013	0
0	3898	1285.733118610472	1
0	3900	1286.853928238911	0
0	3907	1290.745617454708	1
0	3911	1291.508801190341	2
0	3913	1292.833327968112	3
0	3915	1294.928489068281	4
0	3916	1296.177610834666	3
0	3921	1296.52852028864	2
0	3927	1297.25828871251	1
0	3933	1297.90789630952	2
0	3940	1299.961736810952	1
0	3946	1300.324256114141	2
0	3947	1301.119205430699	1
0	3953	1302.156967368013	2
0	3955	1302.15780609236	3
0	3956	1302.763826527355	2
0	3961	1303.150100659021	1
0	3969	1307.480483518357	2
0	3972	1308.731878027647	3
0	3975	1309.798521835148	4
0	3977	1310.940942716279	5
0	3979	1312.653188799482	6
0	3980	1312.72962712871	5
0	3986	1313.691385605544	6
0	3989	1314.556182789972	5
0	3996	1315.914930904735	6
0	3997	1317.493305621995	5
0	4007	1322.115719521871	4
0	4012	1322.381235168057	3
0	4018	1326.028364910969	2
0	4023	1326.038892675687	1
0	4032	1329.684821287546	0
0	4038	1329.769911577703	1
0	4040	1330.899609493824	2
0	4043	1332.409732753828	3
0	4044	1332.61319727016	2
0	4049	1333.057993978625	1
0	4055	1333.075214331926	2
0	4056	1333.178061266771	1
0	4061	1333.352434241718	0
0	4077	1336.612415806539	1
0	4084	1339.961240385929	0
0	4107	1346.085532073599	1
0	4110	1348.145712390381	0
0	4125	1359.046705691422	1
0	4126	1359.538060257801	0
0	4137	1360.930937898213	1
0	4139	1363.824305387203	0
0	4155	1364.498454745014	1
0	4156	1364.771380573157	0
0	4163	1366.251348028144	1
0	4165	1367.100193885938	2
0	4167	1367.235381594034	3
0	4170	1368.265967442427	4
0	4172	1369.638601813502	3
0	4180	1375.228753081688	2
0	4190	1379.989749834061	3
0	4191	1381.106134979929	2
0	4200	1384.140313130942	1
0	4208	1388.846002874142	0
0	4217	1390.15942798373	1
0	4219	1390.209417168407	2
0	4220	1391.104201286739	1
0	4227	1392.023391847977	0
0	4263	1407.010296694707	1
0	4266	1409.681780484985	0
0	4274	1411.389826912629	1
0	4280	1411.766493069139	2
0	4283	1413.150605492515	1
0	4289	1415.161201229611	0
0	4295	1416.317575220961	1
0	4297	1416.704727831397	2
0	4299	1416.735305132987	3
0	4302	1416.953710285967	4
0	4303	1417.562308896068	3
0	4308	1417.841852151111	2
0	4314	1419.126409083299	3
0	4316	1420.021422086292	4
0	4319	1420.924189116343	5
0	4328	1425.606533662886	6
0	4332	1426.398174231223	7
0	4336	1427.122918954503	8
0	4338	1427.220377753236	9
0	4339	1427.258059642722	8
0	4344	1427.792079312091	7
0	4350	1428.261036397565	8
0	4352	1428.992993588779	7
0	4357	1429.985785137506	6
0	4362	1432.311904183229	5
0	4370	1437.605896074344	4
0	4376	1437.788359741589	5
0	4378	1438.711344408521	4
0	4384	1440.969519192423	3
0	4391	1443.92599934971	2
0	4397	1444.302806776092	3
0	4398	1444.880984367004	2
0	4403	1445.010213218854	1
0	4409	1445.882155978178	2
0	4411	1447.047193397296	1
0	4418	1447.604195183922	0
0	4435	1450.990243199258	1
0	4441	1453.010465553235	2
0	4443	1453.239769811909	3
0	4445	1454.279505269733	4
0	4447	1455.845086923167	5
0	4450	1456.968738178413	4
0	4458	1466.296518332086	3
0	4464	1467.10670728082	4
0	4465	1467.163348534857	3
0	4472	1468.324365767538	2
0	4477	1469.037679160258	1
0	4488	1471.929606439471	0
0	4518	1476.80227803371	1
0	4520	1477.288958027872	0
0	4528	1482.652709317228	1
0	4529	1483.545075537907	0
0	4550	1491.093074178654	1
0	4554	1494.375711453358	2
0	4555	1497.581454061872	1
0	4562	1501.375839507435	2
0	4566	1504.334933477049	3
0	4569	1506.160970913677	2
0	4578	1511.367291466916	3
0	4579	1512.723131834228	2
0	4586	1514.910384439717	1
0	4593	1515.950216650865	0
0	4611	1519.889745065962	1
0	4612	1519.982077405931	0
0	4653	1534.04345655205	1
0	4654	1534.918723824832	0
0	4661	1535.396436305515	1
0	4662	1536.319574081745	0
0	4679	1542.571528324086	1
0	4681	1542.996360324475	2
0	4685	1548.175989732921	1
0	4691	1548.586156176421	2
0	4694	1549.781080391946	3
0	4696	1550.588795375548	4
0	4697	1551.603351890168	3
0	4703	1551.624104559112	4
0	4704	1551.693618949675	3
0	4709	1551.924070137322	2
0	4716	1553.663532696625	1
0	4724	1555.793788334897	0
0	4739	1559.345475478916	1
0	4747	1563.039876108792	0
0	4758	1565.264086437949	1
0	4763	1571.328865530534	0
0	4780	1579.051614402634	1
0	4783	1580.000397157627	0
0	4790	1580.143808582281	1
0	4792	1580.166310273234	2
0	4794	1583.182745804075	1
0	4800	1583.213928740714	2
0	4802	1585.757562145709	1
0	4808	1586.091881068104	2
0	4811	1591.122045828685	1
0	4817	1592.321623822519	0
0	4839	1595.798301192896	1
0	4841	1596.34860519323	2
0	4845	1599.277519533272	3
0	4850	1599.743634770139	4
0	4852	1599.899884987807	5
0	4854	1602.36075869493	6
0	4855	1604.500607858604	5
0	4860	1606.030494048733	4
0	4869	1608.59917025938	3
0	4875	1609.101707245542	4
0	4876	1611.587185804592	3
0	4881	1611.920619715483	2
0	4887	1613.254567682246	1
0	4893	1614.334625351463	2
0	4894	1614.384256473235	1
0	4902	1615.740676102346	2
0	4903	1616.572531631691	1
0	4911	1620.009949065613	0
0	4917	1623.288791091914	1
0	4923	1628.873325642314	0
0	4935	1630.732164915463	1
0	4941	1631.902463906695	2
0	4942	1632.659646278438	1
0	4951	1634.324841132699	2
0	4956	1637.059273134509	1
0	4961	1637.263019092068	0
0	4973	1640.057168295831	1
0	4975	1640.86851141768	2
0	4980	1642.017611423543	1
0	4985	1642.54961843914	0
0	4996	1642.629003661689	1
0	5002	1650.610305728119	2
0	5003	1650.729339097838	1
0	5011	1653.38889461683	2
0	5012	1654.550766232235	1
0	5017	1654.770580405968	0
0	5023	1655.078665981062	1
0	5026	1655.725005597503	0
0	5033	1656.598298936909	1
0	5034	1657.212293614366	0
0	5074	1670.812414923808	1
0	5078	1672.410440946074	2
0	5079	1675.205634228146	1
0	5090	1680.796364302673	0
0	5096	1681.94239708674	1
0	5098	1683.980384784904	0
0	5120	1693.773276899438	1
0	5122	1694.774758071177	2
0	5123	1695.51802535848	1
0	5128	1695.749500689803	0
0	5141	1701.05828655547	1
0	5143	1704.252583525743	2
0	5144	1704.502704883219	1
0	5150	1707.072001215099	0
0	5166	1713.643356470469	1
0	5167	1715.150175248583	0
0	5185	1719.066353077216	1
0	5190	1731.431531088383	0
0	5197	1735.058265012411	1
0	5198	1735.198391856586	0
0	5204	1736.164806577793	1
0	5207	1736.34102836434	2
0	5208	1736.921314027301	1
0	5213	1737.535938457758	0
0	5219	1737.817447521966	1
0	5221	1738.129036148493	2
0	5224	1740.248316134295	3
0	5225	1740.330403804944	2
0	5234	1743.580897288542	1
0	5240	1743.755215708286	2
0	5243	1746.415210379895	1
0	5250	1747.857161538666	0
0	5267	1751.464205480463	1
0	5268	1754.617339549829	0
0	5290	1759.064014293889	1
0	5291	1760.95627780495	0
0	5297	1761.800596284719	1
0	5299	1762.33598087257	0
0	5306	1763.113649245314	1
0	5308	1764.61791846898	0
0	5321	1767.255591557792	1
0	5323	1767.604210787375	2
0	5327	1769.574363064923	3
0	5331	1773.114024418107	4
0	5333	1773.297655924411	5
0	5334	1775.043410321403	4
0	5340	1775.203761705325	5
0	5342	1778.493129034617	4
0	5349	1780.801787788536	5
0	5352	1787.282024947993	4
0	5358	1787.708933407885	5
0	5362	1788.200337985535	6
0	5364	1792.130807576657	5
0	5371	1794.174504181201	4
0	5380	1796.746857784376	3
0	5386	1796.990071734696	4
0	5391	1799.542796349478	5
0	5394	1800.034190776913	4
0	5400	1800.14969714155	5
0	5401	1803.676304334734	4
0	5407	1803.748031437291	3
0	5413	1803.765980774596	4
0	5415	1803.97875847752	5
0	5417	1805.530174798983	4
0	5424	1805.861015276068	5
0	5426	1806.04303632958	4
0	5432	1806.774628589056	3
0	5437	1807.05698551298	2
0	5445	1808.34074310249	3
0	5449	1812.529347231038	4
0	5451	1815.391444976644	5
0	5454	1817.392132353892	4
0	5460	1818.78543235908	3
0	5465	1819.129140942749	2
0	5474	1821.784660080687	3
0	5475	1822.115498438024	2
0	5482	1824.807137782089	1
0	5489	1825.449950213503	2
0	5491	1826.074698337312	3
0	5492	1829.468516748768	2
0	5498	1831.624476602104	1
0	5504	1832.110269836668	2
0	5506	1832.126408184972	3
0	5512	1835.141350930797	2
0	5520	1838.724616202761	1
0	5526	1840.921389231571	0
0	5532	1842.148734844452	1
0	5534	1842.574988099779	0
0	5540	1843.115288298656	1
0	5545	1846.116598641626	2
0	5546	1849.048592762473	1
0	5554	1851.360525200422	2
0	5555	1854.664109494099	1
0	5560	1855.570461908857	0
0	5583	1861.440950230864	1
0	5584	1861.949787641968	0
0	5593	1864.915611783477	1
0	5594	1865.208265820432	0
0	5601	1870.367004783438	1
0	5603	1870.704173489099	2
0	5606	1875.341771445714	1
0	5612	1875.432881813368	2
0	5613	1875.797385994723	1
0	5618	1876.28793163804	0
0	5624	1878.845363921975	1
0	5627	1880.435589280519	0
0	5641	1883.560993540924	1
0	5642	1883.657943044108	0
0	5658	1885.951004916051	1
0	5659	1886.018706331418	0
0	5665	1887.319189083614	1
0	5671	1889.638804273794	2
0	5672	1890.357810837678	1
0	5679	1890.417628562442	0
0	5687	1891.362275503331	1
0	5691	1894.438815012851	0
0	5741	1911.466799777521	1
0	5744	1913.360662066387	0
0	5753	1915.547875253551	1
0	5756	1915.903930999502	0
0	5785	1925.08877258118	1
0	5789	1925.587398074278	2
0	5790	1925.691110621003	1
0	5798	1926.615514037284	0
0	5805	1929.567763472426	1
0	5806	1930.142960671997	0
0	5813	1931.292363695703	1
0	5815	1934.164087811689	2
0	5816	1934.270014529331	1
0	5824	1936.879836454351	0
0	5831	1937.580624668041	1
0	5833	1939.731443726754	0
0	5841	1940.280783587703	1
0	5846	1941.15586666066	2
0	5847	1941.838733055052	1
0	5853	1942.356573372218	0
0	5866	1944.186757242015	1
0	5870	1946.561662593296	0
0	5891	1949.589859505356	1
0	5899	1952.004668102867	2
0	5901	1952.441339368427	3
0	5903	1953.261219781859	2
0	5909	1954.469616382173	1
0	5915	1955.806515139337	0
0	5921	1956.386472940786	1
0	5924	1957.025109850814	2
0	5926	1959.470557814473	1
0	5932	1959.648516371905	2
0	5934	1967.28651597291	1
0	5940	1970.789906851101	0
0	5952	1974.263008212283	1
0	5954	1977.5687674461	2
0	5955	1977.584869074298	1
0	5960	1977.722105409334	0
0	5967	1978.22394557862	1
0	5970	1980.244165866154	2
0	5971	1981.035152422071	1
0	5977	1981.762491429494	0
0	5990	1983.483191815751	1
0	5991	1984.267621481514	0
0	6017	1996.344097385238	1
0	6020	1997.201520213177	0
0	6027	1997.620524589979	1
0	6029	1999.252223066032	2
0	6030	1999.854585861445	1
0	6036	2000.061943115474	2
0	6040	2000.836356389842	3
0	6042	2003.002768601399	2
0	6048	2003.142324690426	3
0	6050	2004.441388139666	2
0	6057	2005.097134614326	3
0	6061	2007.620083346314	4
0	6062	2008.431868641718	3
0	6067	2008.757443522324	2
0	6074	2010.208153607315	1
0	6084	2013.293407846256	2
0	6085	2013.699850041481	1
0	6094	2017.965687062731	2
0	6096	2019.504906412306	3
0	6101	2021.393810325334	2
0	6106	2022.395252943396	1
0	6111	2022.594400044891	0
0	6147	2027.415873107735	1
0	6149	2027.435794010031	2
0	6153	2027.492793390731	3
0	6154	2028.816870205745	2
0	6162	2029.571569422776	3
0	6163	2029.764684060309	2
0	6170	2031.146244498766	1
0	6176	2032.320884766602	0
0	6182	2032.436257864796	1
0	6185	2033.3067609599	2
0	6187	2035.405662051134	3
0	6188	2036.355502291322	2
0	6200	2043.829910762196	3
0	6202	2044.018886542757	4
0	6203	2044.881435652508	3
0	6209	2045.290324068339	4
0	6211	2045.578110233705	5
0	6213	2046.261364495621	6
0	6214	2047.437611985949	5
0	6219	2048.111260252943	4
0	6226	2048.776202979006	5
0	6230	2050.034243672054	4
0	6236	2050.317592714935	5
0	6238	2050.994214938311	4
0	6244	2051.665704015576	3
0	6249	2052.106421817981	2
0	6255	2053.30375606478	3
0	6256	2053.559543420931	2
0	6263	2054.153950612473	1
0	6268	2057.544373568967	0
0	6280	2063.20653568001	1
0	6284	2064.420341286588	2
0	6286	2064.683150271789	3
0	6287	2073.294968030693	2
0	6298	2075.394527531858	1
0	6305	2076.263258956693	2
0	6307	2077.80435619861	1
0	6312	2078.210943896803	0
0	6320	2081.427634201108	1
0	6322	2083.031814572742	2
0	6323	2083.146563752475	1
0	6333	2083.793840433581	0
0	6376	2101.223599317817	1
0	6382	2104.707135250486	2
0	6383	2107.413474247306	1
0	6389	2107.514615241606	2
0	6391	2108.449497363241	3
0	6393	2109.4499710895	2
0	6398	2109.981110625467	1
0	6404	2110.716716343113	2
0	6405	2111.396529442311	1
0	6412	2111.8867435982	0
0	6444	2119.672500231971	1
0	6446	2121.878830833571	0
0	6455	2123.171446612406	1
0	6457	2124.893732351944	2
0	6462	2127.039864593705	3
0	6463	2128.907793474392	2
0	6472	2132.346896156193	3
0	6474	2132.848636839823	4
0	6477	2134.364954658046	3
0	6484	2135.157323960689	4
0	6485	2135.42575424305	3
0	6491	2136.72044624948	2
0	6498	2138.320404047627	1
0	6504	2138.683455869593	2
0	6507	2141.245494684419	1
0	6513	2146.54737435675	0
0	6525	2151.87446360506	1
0	6528	2155.631728248908	0
0	6535	2156.214919873864	1
0	6537	2158.3454192346	0
0	6544	2159.239338025814	1
0	6546	2159.715737822205	2
0	6547	2160.870610272942	1
0	6553	2164.096671111158	0
0	6564	2170.703908261509	1
0	6565	2170.85188061548	0
0	6571	2172.338589228625	1
0	6573	2173.105481851925	0
0	6580	2174.466585513271	1
0	6582	2175.357090684747	0
0	6590	2177.046741739724	1
0	6592	2179.415639433834	0
0	6599	2180.375975430635	1
0	6600	2181.613589963997	0
0	6622	2183.154394468926	1
0	6625	2185.516255589073	2
0	6627	2187.307995265243	3
0	6628	2189.405569270436	2
0	6633	2189.475969278321	1
0	6640	2189.953536633227	2
0	6641	2190.140095476845	1
0	6648	2191.432093426266	0
0	6668	2193.447262274323	1
0	6671	2195.09840087873	0
0	6685	2196.255881810686	1
0	6689	2198.422555150001	0
0	6714	2204.96078831931	1
0	6716	2207.481120516538	2
0	6720	2208.425450476817	3
0	6722	2208.706696280538	4
0	6725	2211.325820342301	3
0	6731	2212.983652883127	2
0	6738	2216.463588716273	3
0	6741	2217.795720416083	2
0	6746	2218.049935333803	1
0	6754	2219.19619825999	0
0	6761	2219.948922438624	1
0	6765	2221.524088878453	0
0	6799	2233.426535990861	1
0	6801	2234.157393762894	2
0	6802	2235.040950427446	1
0	6808	2235.183886264684	2
0	6810	2236.061478612791	3
0	6812	2236.882849653858	4
0	6813	2237.890620923702	3
0	6819	2238.528217778853	4
0	6821	2239.875270650468	3
0	6826	2240.429758054473	2
0	6831	2240.869111739038	1
0	6841	2243.854840653343	0
0	6855	2244.54070074123	1
0	6859	2246.473367123358	2
0	6862	2246.844586133499	1
0	6871	2251.247647583068	2
0	6873	2251.942051951687	3
0	6875	2252.047097882338	4
0	6876	2252.971510079593	3
0	6885	2258.039726036414	2
0	6892	2258.897659877671	3
0	6894	2259.059168023989	4
0	6898	2261.063773075866	3
0	6904	2261.217728206187	2
0	6910	2262.844494059746	3
0	6912	2263.575889456983	2
0	6918	2263.985421465115	3
0	6919	2264.338852333941	2
0	6928	2266.999212460474	3
0	6932	2269.739537087252	4
0	6934	2269.75286588372	5
0	6937	2276.30742556798	6
0	6939	2276.87670978156	7
0	6940	2277.65507413905	6
0	6947	2279.498844961985	7
0	6951	2280.188058304033	8
0	6955	2281.86625384875	9
0	6956	2283.596997360285	8
0	6965	2288.565003954209	9
0	6967	2289.959008013803	10
0	6968	2292.707132048954	9
0	6974	2294.266894866322	10
0	6976	2296.577322888839	9
0	6981	2296.786616886308	8
0	6986	2297.590031762303	7
0	6992	2297.594338907068	8
0	6999	2305.002985508235	7
0	7004	2305.587617674919	6
0	7009	2307.086779511527	5
0	7017	2310.122396812349	6
0	7019	2311.289786855061	5
0	7025	2311.783829727294	6
0	7027	2312.349773396192	7
0	7029	2314.045750706687	6
0	7037	2314.709723366993	7
0	7040	2315.226443535079	8
0	7041	2316.145932541751	7
0	7048	2317.216793955903	8
0	7050	2320.451998025072	9
0	7051	2320.747542468263	8
0	7060	2322.371918843425	9
0	7064	2328.867044547422	10
0	7069	2331.413167705306	9
0	7079	2333.526558533876	10
0	7084	2338.552405845533	11
0	7086	2340.037326670991	12
0	7087	2340.691782944551	11
0	7092	2341.328442929464	10
0	7100	2346.605891906243	9
0	7107	2346.952319191018	8
0	7114	2350.151472296839	7
0	7120	2352.136522249129	6
0	7129	2355.539050433037	7
0	7130	2356.34446793629	6
0	7136	2357.565143949002	5
0	7142	2362.801667963466	4
0	7153	2365.269339406348	5
0	7156	2366.913439315841	4
0	7161	2367.749837427179	3
0	7167	2368.911643921822	4
0	7170	2371.97113603664	3
0	7176	2372.155032407279	4
0	7179	2372.460382508274	5
0	7181	2375.169480641365	6
0	7183	2375.171419309787	7
0	7184	2375.951171405807	6
0	7190	2379.067531917928	5
0	7200	2384.474085457644	4
0	7205	2385.619162388565	3
0	7212	2387.574165421277	2
0	7217	2387.632426328658	1
0	7222	2388.204330565284	0
0	7233	2389.699739762315	1
0	7236	2390.614174142975	0
0	7243	2395.095606233949	1
0	7249	2401.608109213086	0
0	7255	2402.428218605843	1
0	7258	2402.858828197884	2
0	7259	2403.273049260368	1
0	7268	2405.342566090486	2
0	7270	2405.859318308637	3
0	7273	2408.603630114564	2
0	7280	2410.030949820586	3
0	7282	2410.751050304506	4
0	7287	2416.012884470063	3
0	7292	2416.459531433007	2
0	7297	2416.61565868894	1
0	7302	2416.661786931351	0
0	7329	2423.768168191021	1
0	7331	2424.13178971354	0
0	7337	2424.350407431437	1
0	7340	2425.711312923097	2
0	7342	2426.436494507039	3
0	7345	2430.895308464766	2
0	7350	2431.321333227287	1
0	7361	2434.432406266713	0
0	7375	2438.091857399787	1
0	7376	2438.145429160338	0
0	7382	2438.353794685889	1
0	7384	2438.427117646991	2
0	7385	2438.598184023139	1
0	7392	2439.422858126994	0
0	7433	2453.696074398862	1
0	7435	2453.71321487897	2
0	7437	2454.498656854425	3
0	7438	2455.899132485871	2
0	7445	2457.083962398201	1
0	7454	2458.398954227731	2
0	7455	2459.378741638039	1
0	7460	2459.789450884108	0
0	7466	2460.223906040006	1
0	7467	2460.514313216891	0
0	7474	2461.240812641904	1
0	7475	2461.48859810594	0
0	7488	2466.597037137057	1
0	7489	2466.59994422649	0
0	7506	2467.875614515121	1
0	7507	2468.091565481108	0
0	7514	2469.674987157586	1
0	7515	2470.451530941439	0
0	7523	2471.996789426786	1
0	7527	2474.434670715201	2
0	7529	2479.108936352666	3
0	7530	2479.282627253282	2
0	7536	2481.17694927211	1
0	7543	2482.710868305789	2
0	7545	2485.037883276691	3
0	7548	2485.990483643385	2
0	7555	2486.28729249553	1
0	7561	2487.326438581418	0
0	7576	2488.271118138994	1
0	7578	2488.886871504842	2
0	7579	2489.203416208916	1
0	7584	2490.655715874328	0
0	7596	2492.592892137361	1
0	7600	2496.69853594051	0
0	7621	2504.046171542751	1
0	7622	2504.738486436086	0
0	7629	2507.204030769913	1
0	7632	2507.699926453921	0
0	7643	2512.291687736346	1
0	7644	2512.509799053157	0
0	7657	2513.769321891874	1
0	7659	2518.764057125209	0
0	7665	2518.786384041632	1
0	7670	2525.054602062854	2
0	7672	2525.248878235645	3
0	7674	2525.774275139391	4
0	7675	2527.646834729437	3
0	7680	2527.857668125023	2
0	7687	2529.891995781592	1
0	7693	2530.61557813941	0
0	7700	2532.987585802735	1
0	7701	2535.113152966261	0
0	7713	2538.146452957905	1
0	7717	2539.561351599708	0
0	7724	2540.40608086359	1
0	7725	2540.883086241894	0
0	7731	2540.933110778323	1
0	7732	2541.093710409716	0
0	7744	2544.053108061689	1
0	7746	2545.38723948569	2
0	7749	2550.119340388421	1
0	7759	2551.777584888903	0
0	7765	2553.67072751668	1
0	7769	2556.014576587299	2
0	7772	2558.921049393932	1
0	7778	2559.620146874299	2
0	7781	2561.21884372633	3
0	7782	2561.47141906963	2
0	7788	2562.077841009389	1
0	7798	2564.432552038327	0
0	7812	2568.307424277978	1
0	7813	2568.341144528233	0
0	7843	2571.725256338224	1
0	7847	2573.036457846219	0
0	7861	2576.568464216769	1
0	7862	2578.002987020644	0
0	7868	2578.126006150805	1
0	7874	2584.696946678677	2
0	7876	2585.686655707225	3
0	7878	2586.607897154789	4
0	7880	2589.22904342533	5
0	7882	2589.243735128297	6
0	7885	2590.822461465741	5
0	7893	2592.389068934342	6
0	7898	2594.233355233038	7
0	7901	2594.764587446577	6
0	7907	2595.034927387172	7
0	7914	2599.089979460252	6
0	7920	2600.744984692855	5
0	7927	2601.192460621481	4
0	7933	2601.557081921973	5
0	7938	2603.028406279629	4
0	7947	2604.143535690834	3
0	7953	2604.272015768333	4
0	7960	2606.527481762014	3
0	7967	2607.177989755721	2
0	7974	2607.948994584636	1
0	7981	2608.14652439192	0
0	8004	2612.460246662081	1
0	8005	2613.454062093343	0
0	8036	2619.766807544746	1
0	8038	2620.455392246543	0
0	8055	2628.20671972664	1
0	8057	2629.463129705105	2
0	8061	2631.383874187365	3
0	8063	2632.740272984966	4
0	8066	2636.625801066	3
0	8073	2638.25774999158	4
0	8076	2639.58466992167	5
0	8079	2642.556383567434	4
0	8084	2644.12324354177	3
0	8092	2646.682179327125	4
0	8095	2649.221512423214	3
0	8101	2650.702076083176	2
0	8110	2651.85265502595	1
0	8116	2651.885366986143	2
0	8117	2652.333132722125	1
0	8122	2653.304619967678	0
0	8141	2657.405981917026	1
0	8143	2657.56141994714	2
0	8144	2658.053588980996	1
0	8149	2660.725102588403	0
0	8180	2666.97778517026	1
0	8181	2667.470783913728	0
0	8203	2680.610117116879	1
0	8206	2681.434795400631	0
0	8224	2687.293995785686	1
0	8227	2691.397432764055	0
0	8238	2692.659029489709	1
0	8244	2694.718263055482	0
0	8250	2695.343908021402	1
0	8255	2696.16279815362	2
0	8257	2697.743980682797	1
0	8263	2699.46963113161	2
0	8265	2701.149875199818	1
0	8271	2702.654884042549	2
0	8273	2702.661078866026	3
0	8277	2703.193338640734	4
0	8280	2704.476487300445	5
0	8286	2705.721019730619	6
0	8287	2706.677448626392	5
0	8295	2708.500715277492	4
0	8300	2708.577087224428	3
0	8310	2710.702435010448	4
0	8313	2712.706803989742	5
0	8315	2712.85241018847	6
0	8317	2713.514149105088	7
0	8318	2714.009455354175	6
0	8323	2714.588594556427	5
0	8333	2718.133453841014	6
0	8334	2719.22241838649	5
0	8340	2720.05771389717	4
0	8347	2720.598264341789	5
0	8351	2726.164694840865	4
0	8357	2730.257064714752	3
0	8363	2731.265434698943	4
0	8365	2731.90494260276	3
0	8370	2732.255487258358	2
0	8381	2735.519068386523	1
0	8387	2736.82646626628	0
0	8394	2737.411262666305	1
0	8395	2739.541802790814	0
0	8406	2743.832424932319	1
0	8407	2745.316799344637	0
0	8460	2767.175053157769	1
0	8462	2767.713510973056	2
0	8464	2768.551532996432	3
0	8465	2770.004075174827	2
0	8472	2771.421327897394	3
0	8477	2775.245193668182	4
0	8478	2777.827953268882	3
0	8484	2778.492854455115	2
0	8490	2779.136669597462	3
0	8493	2781.506047662522	4
0	8495	2781.783284961165	5
0	8497	2782.808683395461	6
0	8498	2783.307898348877	5
0	8506	2785.165565110079	6
0	8507	2789.291193722189	5
0	8515	2790.494264171696	6
0	8516	2791.063993019438	5
0	8525	2792.088826775864	4
0	8533	2793.794142138388	3
0	8540	2796.414641742068	4
0	8544	2796.967544763852	5
0	8546	2799.109429084698	6
0	8547	2799.939910360822	5
0	8555	2802.1220981077	6
0	8557	2805.41364221508	7
0	8558	2806.648181055137	6
0	8563	2806.779760163112	5
0	8569	2807.106272631649	4
0	8581	2811.045139847331	3
0	8587	2812.467728009956	4
0	8589	2815.095681625027	3
0	8595	2815.647897948803	4
0	8597	2815.774484860558	3
0	8603	2817.411111821401	4
0	8607	2819.035251916333	3
0	8615	2821.641805325497	2
0	8621	2822.512413950468	1
0	8626	2822.964063337301	0
0	8648	2830.129513380168	1
0	8649	2832.906431083604	0
0	8657	2839.620499345201	1
0	8658	2839.628815422435	0
0	8666	2840.213523239406	1
0	8669	2843.508219204813	0
0	8706	2850.999184833684	1
0	8708	2852.815409056432	2
0	8710	2852.895751379084	3
0	8712	2854.920277551395	4
0	8714	2854.968151830032	5
0	8720	2859.837337570011	6
0	8722	2862.344036765098	7
0	8724	2864.513409936965	8
0	8727	2866.184285627056	7
0	8734	2872.520807457945	8
0	8735	2872.704805008195	7
0	8741	2873.277486614085	6
0	8746	2873.592936662398	5
0	8752	2874.377290422958	6
0	8758	2876.357698212346	7
0	8761	2877.03859760754	6
0	8766	2877.0512866666	5
0	8771	2877.218961911024	4
0	8776	2877.548997440116	3
0	8783	2878.891711814718	4
0	8786	2880.491662596724	3
0	8792	2883.192650770393	2
0	8802	2885.098033157244	3
0	8806	2888.092458674335	4
0	8809	2889.881771276132	5
0	8811	2890.189402334826	6
0	8813	2891.721998856657	5
0	8819	2892.982532457669	4
0	8825	2893.047996055972	5
0	8827	2896.310594409	4
0	8832	2896.389561304338	3
0	8838	2897.194222392474	4
0	8841	2897.455679903004	3
0	8851	2898.900784967601	4
0	8854	2900.312891637779	5
0	8855	2900.883098267192	4
0	8861	2902.662107605142	5
0	8864	2904.118757561137	6
0	8867	2904.668602251397	5
0	8874	2905.969643211718	6
0	8880	2915.577989393667	5
0	8888	2916.869751434272	4
0	8893	2917.204360514814	3
0	8901	2919.400948751819	2
0	8906	2919.613504334593	1
0	8913	2921.230369601079	2
0	8916	2924.212934342075	1
0	8922	2925.001755821288	2
0	8923	2925.131373779089	1
0	8930	2928.563052409153	0
0	8947	2931.424190455843	1
0	8951	2932.253569451545	0
0	8968	2934.794945478221	1
0	8971	2937.245105809912	2
0	8972	2937.350994196288	1
0	8977	2937.534908669785	0
0	8993	2938.877642184371	1
0	8994	2939.04970185848	0
0	9009	2941.841741079086	1
0	9014	2942.695635140744	0
0	9021	2944.326581439906	1
0	9022	2944.754368520015	0
0	9028	2944.889356154639	1
0	9031	2945.757237573949	2
0	9034	2946.887744434198	1
0	9039	2946.896144262523	0
0	9045	2948.084823959113	1
0	9047	2948.656041874075	0
0	9065	2955.53563262304	1
0	9066	2956.382637283791	0
0	9075	2959.494980102756	1
0	9078	2959.615574470724	2
0	9084	2963.035237599622	3
0	9088	2964.87589424033	4
0	9089	2965.081713682457	3
0	9095	2965.875566909224	4
0	9097	2966.909101033312	5
0	9099	2969.786357882044	4
0	9106	2971.392762850676	3
0	9112	2972.054657056125	4
0	9116	2972.326318748643	5
0	9118	2973.450984928883	4
0	9124	2974.174441146797	5
0	9125	2974.491296944534	4
0	9132	2974.800295638582	5
0	9133	2974.809806791915	4
0	9138	2975.091213555186	3
0	9146	2977.969446539694	4
0	9148	2979.436206966823	3
0	9157	2981.555756234912	2
0	9164	2982.249413641643	1
0	9171	2984.227536859409	0
0	9182	2986.219467073601	1
0	9187	2987.932557551006	0
0	9202	2989.375275865874	1
0	9205	2991.496991295793	2
0	9208	2992.202782652251	3
0	9210	2993.661010773768	4
0	9211	2994.024905654509	3
0	9217	2994.845340570023	2
0	9222	2996.443337808826	1
0	9230	2997.342652612525	0
0	9249	3003.317799535045	1
0	9250	3003.355995192126	0
0	9281	3011.09951922102	1
0	9283	3011.892545508114	2
0	9286	3012.540892158663	1
0	9291	3012.570629431563	0
0	9302	3014.246647813619	1
0	9304	3017.589293666792	0
0	9317	3019.296619435018	1
0	9318	3019.448198269816	0
0	9331	3021.139711071754	1
0	9336	3023.597932597257	0
0	9342	3023.869689493649	1
0	9343	3024.89525506033	0
0	9351	3025.210101346951	1
0	9353	3025.660381026999	2
0	9354	3026.781848568783	1
0	9360	3026.798525359893	2
0	9362	3027.673158951922	3
0	9363	3028.894210250538	2
0	9368	3029.274506511558	1
0	9376	3031.349949322403	0
0	9385	3034.651728785343	1
0	9391	3035.817303033773	2
0	9392	3036.314891000963	1
0	9398	3036.320988534211	2
0	9401	3037.562592622591	1
0	9406	3037.605019304626	0
0	9420	3043.990872114839	1
0	9422	3044.973995757555	2
0	9423	3045.818607595724	1
0	9429	3047.466160007579	2
0	9432	3047.74141961594	1
0	9438	3048.096852086461	2
0	9440	3049.760258459975	3
0	9446	3050.119664928194	4
0	9448	3050.45762684179	3
0	9455	3052.601152307441	4
0	9457	3052.977430857845	3
0	9463	3054.215353769997	4
0	9464	3054.393896120463	3
0	9471	3055.225419164401	4
0	9473	3057.20643821683	3
0	9481	3058.909846688168	2
0	9489	3060.449441340527	1
0	9495	3061.783361340764	0
0	9507	3066.639555243833	1
0	9511	3067.272843460556	2
0	9516	3070.981279762527	1
0	9524	3071.822177452027	2
0	9527	3073.683661905242	1
0	9532	3074.712109812286	0
0	9538	3076.340389656645	1
0	9543	3080.363077902682	2
0	9546	3081.086405163266	3
0	9549	3082.198588783507	4
0	9550	3083.456489898142	3
0	9557	3083.724985581163	4
0	9561	3084.986249227474	5
0	9563	3087.535890735129	6
0	9565	3090.249752053603	7
0	9567	3090.490022517691	8
0	9568	3097.662939955391	7
0	9577	3100.161312996841	8
0	9578	3100.441820571379	7
0	9586	3104.475956539669	6
0	9592	3108.437909194505	5
0	9598	3108.73886656601	6
0	9599	3109.515145098985	5
0	9604	3110.265577354575	4
0	9612	3113.263548435682	3
0	9622	3114.88210908456	2
0	9628	3115.755228555118	3
0	9631	3117.266847779	4
0	9638	3122.136556494935	3
0	9643	3122.312907404136	2
0	9652	3124.122610769369	1
0	9658	3126.312877278149	0
0	9680	3130.271747980352	1
0	9683	3132.428859345492	0
0	9690	3133.027281643862	1
0	9692	3133.113947451973	2
0	9694	3134.08263368999	3
0	9696	3134.620373119167	4
0	9699	3137.049847753762	3
0	9705	3138.417746210334	2
0	9712	3143.038130301849	3
0	9713	3144.925819544579	2
0	9720	3147.585424382953	3
0	9722	3149.540320174972	4
0	9723	3151.867726853209	3
0	9728	3151.964349231471	2
0	9733	3152.196341166225	1
0	9738	3153.459005409049	0
0	9752	3158.796675442666	1
0	9755	3159.808853388562	2
0	9756	3160.459894661462	1
0	9762	3161.36658994506	2
0	9763	3161.825426995056	1
0	9769	3162.5430753054	0
0	9778	3166.319000438642	1
0	9779	3167.648322071353	0
0	9786	3172.026127654397	1
0	9787	3172.108957229017	0
0	9825	3184.864954487245	1
0	9827	3185.922416343303	2
0	9832	3187.706994447337	1
0	9838	3187.941376914494	0
0	9899	3206.084353231314	1
0	9902	3206.395758692824	0
0	9915	3210.059078818693	1
0	9916	3210.374997591226	0
0	9935	3215.34211052331	1
0	9936	3215.778045797596	0
0	9945	3223.496126757328	1
0	9946	3223.641266226672	0
0	9962	3227.515168351139	1
0	9968	3229.506844363082	0
0	9975	3229.951387781593	1
0	9979	3232.014395138133	0
0	9986	3232.310339655849	1
0	9987	3232.434339723172	0
0	10008	3241.826690686138	1
0	10012	3243.134368053344	2
0	10013	3244.423170118212	1
0	10018	3244.746907893805	0
0	10029	3246.788566895234	1
0	10031	3246.860854193633	2
0	10035	3247.565373789252	3
0	10037	3248.063317543488	4
0	10041	3250.061081210441	5
0	10045	3251.041677277828	6
0	10046	3251.272492886466	5
0	10054	3254.710937373974	4
0	10062	3256.632864368658	5
0	10064	3256.950068451691	6
0	10065	3257.416865423419	5
0	10075	3260.874931465789	4
0	10082	3262.589483989899	3
0	10087	3263.287484763286	2
0	10093	3264.435071342896	3
0	10102	3269.10486453246	4
0	10106	3269.792690589941	5
0	10109	3273.735121362551	4
0	10116	3274.156221784075	5
0	10118	3274.281428207178	6
0	10120	3275.315447135008	7
0	10124	3276.709537194497	8
0	10125	3277.316146544888	7
0	10130	3278.003004028918	6
0	10136	3278.007973970238	7
0	10140	3280.904349768506	6
0	10145	3281.441607409931	5
0	10152	3281.95220560243	4
0	10158	3282.554084774421	5
0	10160	3283.658427114735	6
0	10162	3285.013247537395	5
0	10168	3285.54868287455	6
0	10171	3288.482925614245	7
0	10173	3290.73132855077	8
0	10176	3292.227915601275	7
0	10181	3292.357923305825	6
0	10186	3292.57671263396	5
0	10192	3293.297724752069	4
0	10201	3296.482809089706	3
0	10209	3298.635232388902	4
0	10211	3300.224385501719	3
0	10223	3304.36109474668	4
0	10224	3304.442321660781	3
0	10231	3304.867382138449	2
0	10238	3307.554583824637	1
0	10244	3309.096037350209	2
0	10246	3309.917284625596	3
0	10247	3313.203665821116	2
0	10252	3315.028980325765	1
0	10257	3316.33659521452	0
0	10264	3320.841688619961	1
0	10265	3320.944016842595	0
0	10283	3326.125369598987	1
0	10284	3326.899681721266	0
0	10290	3327.481201761383	1
0	10293	3327.937761397095	2
0	10297	3330.764279526366	3
0	10298	3330.987350725866	2
0	10304	3331.012805797882	3
0	10306	3332.049272143042	2
0	10313	3333.697356251201	3
0	10316	3334.671654615999	4
0	10317	3335.011732385092	3
0	10324	3335.435347841476	4
0	10325	3335.53942305862	3
0	10332	3336.910575040429	4
0	10334	3337.158028654885	3
0	10341	3339.245286158236	2
0	10347	3339.278756443207	3
0	10355	3346.363041932219	2
0	10360	3350.510664190531	1
0	10366	3350.751818515451	2
0	10374	3355.475083296751	3
0	10375	3355.513550359453	2
0	10381	3356.482752287819	1
0	10387	3357.028975320505	0
0	10421	3362.603428830132	1
0	10422	3364.06628474688	0
0	10433	3366.271017886332	1
0	10439	3368.072771859825	2
0	10440	3369.100586890277	1
0	10447	3370.411803680687	2
0	10448	3371.10011303354	1
0	10457	3371.538388629756	2
0	10458	3373.638218767162	1
0	10469	3375.23899978412	2
0	10470	3376.159995229928	1
0	10475	3376.226811005489	0
0	10483	3378.792629146405	1
0	10490	3384.410643792042	2
0	10493	3385.553570269938	3
0	10495	3386.410923558207	4
0	10496	3388.236158990092	3
0	10504	3389.67360003973	2
0	10510	3389.772396099481	3
0	10512	3390.490482773988	2
0	10517	3390.678954005475	1
0	10523	3390.85063448567	2
0	10527	3392.230505446112	1
0	10537	3397.028082545228	0
0	10544	3397.334930134285	1
0	10545	3397.999827144366	0
0	10551	3398.234456061634	1
0	10552	3398.398774601975	0
0	10568	3402.683578420027	1
0	10570	3402.811155145701	0
0	10578	3405.09204745548	1
0	10579	3406.828711923784	0
0	10590	3407.194604416515	1
0	10591	3408.068903358584	0
0	10597	3410.565605225732	1
0	10598	3411.140180213785	0
0	10625	3415.534627644287	1
0	10628	3415.922506133566	0
0	10643	3419.904571527113	1
0	10645	3420.071782796402	2
0	10646	3420.447309078218	1
0	10653	3422.194267037219	0
0	10695	3434.847476786356	1
0	10697	3435.287042558325	2
0	10698	3436.16054134199	1
0	10704	3436.658530897331	2
0	10706	3438.643675353542	1
0	10711	3439.608613209557	0
0	10726	3445.655903551547	1
0	10728	3446.061911765816	0
0	10734	3446.939443162994	1
0	10738	3453.366646901401	0
0	10764	3459.532872869893	1
0	10766	3461.828098928451	2
0	10768	3462.29056267625	3
0	10770	3462.631886198634	4
0	10773	3465.060889077047	3
0	10780	3468.620555114133	4
0	10781	3470.117653335748	3
0	10787	3471.058504307483	2
0	10792	3471.058939187388	1
0	10799	3471.574330204945	0
0	10829	3480.370582907212	1
0	10830	3481.710237741793	0
0	10848	3486.064471895837	1
0	10849	3487.416893160928	0
0	10855	3489.767469436178	1
0	10858	3490.07366559009	2
0	10859	3491.618270608045	1
0	10865	3494.613090669327	0
0	10904	3506.003593735146	1
0	10906	3506.754152931244	2
0	10908	3506.812179336548	3
0	10909	3508.275399515622	2
0	10914	3508.386543264612	1
0	10920	3508.713302410182	0
0	10939	3520.416169184778	1
0	10945	3523.845401752892	2
0	10946	3524.176970481361	1
0	10953	3526.329172629272	2
0	10955	3527.103984809388	3
0	10959	3528.884507922496	4
0	10960	3531.063301993813	3
0	10967	3534.034811711379	4
0	10969	3534.315148687474	5
0	10971	3535.412173250315	6
0	10972	3536.301868495741	5
0	10977	3536.925847380765	4
0	10982	3537.039313572882	3
0	10987	3537.716279773529	2
0	10993	3539.238684532229	1
0	10999	3539.632570528167	0
0	11046	3553.223453002314	1
0	11048	3553.318125808438	2
0	11052	3555.46496261482	1
0	11057	3556.093382612755	0
0	11063	3556.56156294081	1
0	11068	3559.761169083671	2
0	11070	3560.108418605084	3
0	11072	3560.546355634247	4
0	11075	3565.586456804633	5
0	11077	3566.033211786849	4
0	11082	3566.209550466881	3
0	11091	3569.630397910358	2
0	11097	3572.077397459494	1
0	11103	3572.312124774538	2
0	11105	3576.91595772909	1
0	11111	3578.837712407719	2
0	11116	3583.697625113981	3
0	11118	3583.857992135368	4
0	11119	3588.380103175212	3
0	11128	3589.99353405189	2
0	11133	3593.135519513063	1
0	11138	3593.639214031876	0
0	11164	3605.406307858997	1
0	11165	3605.819619198334	0
0	11177	3612.842151356554	1
0	11182	3613.529351461176	2
0	11185	3614.123253145134	3
0	11186	3614.469864555901	2
0	11192	3615.239851813627	1
0	11197	3617.150507329369	0
0	11213	3623.202920047475	1
0	11215	3623.326513128681	2
0	11218	3625.415976287216	1
0	11229	3629.525086561515	0
0	11247	3632.625070444913	1
0	11248	3634.536702864984	0
0	11259	3635.524163605751	1
0	11263	3639.146698281936	0
0	11278	3646.105632449253	1
0	11279	3646.810903504782	0
0	11285	3648.317702694876	1
0	11290	3649.764645268772	2
0	11291	3650.255403400954	1
0	11303	3654.949447915852	2
0	11305	3658.188425209362	3
0	11310	3663.750247337355	2
0	11316	3664.904775021061	1
0	11322	3666.371940621125	2
0	11326	3666.919921748772	3
0	11327	3668.430947292248	2
0	11335	3671.748064193739	1
0	11344	3677.184867031209	0
0	11361	3680.807073549932	1
0	11363	3680.908874474511	2
0	11364	3681.02103203893	1
0	11374	3682.546499962293	2
0	11376	3683.209007809111	1
0	11384	3685.437197977566	0
0	11411	3691.268611935463	1
0	11415	3693.698477204331	2
0	11419	3698.847630065826	3
0	11420	3699.877849687475	2
0	11425	3699.916344450795	1
0	11430	3701.355508463501	0
0	11445	3703.212526247681	1
0	11449	3706.677555045894	2
0	11452	3707.2116383645	1
0	11459	3707.403218252338	2
0	11462	3712.117701142686	1
0	11468	3713.513659541579	0
0	11482	3715.953318474606	1
0	11484	3716.770911941402	2
0	11487	3717.412615576281	1
0	11495	3723.739654798319	0
0	11501	3725.118924589541	1
0	11504	3725.61901767722	2
0	11508	3728.164131982744	3
0	11510	3728.62324194727	4
0	11511	3729.159454979208	3
0	11516	3729.334982308282	2
0	11522	3729.909583266976	3
0	11523	3730.36753792373	2
0	11531	3732.794929096281	1
0	11536	3733.567519033423	0
0	11542	3733.626744787053	1
0	11545	3734.142124132235	2
0	11548	3738.512875176266	1
0	11553	3738.768555839705	0
0	11565	3740.00894116691	1
0	11569	3741.179238755554	2
0	11575	3743.256496333796	1
0	11583	3745.351262691989	0
0	11624	3754.162836445089	1
0	11625	3754.666664715776	0
0	11632	3755.401509165268	1
0	11633	3756.047035289642	0
0	11640	3756.422746080479	1
0	11642	3757.811229787041	2
0	11644	3759.317671866656	3
0	11645	3761.579837710827	2
0	11650	3762.605138812806	1
0	11659	3765.314130351342	0
0	11670	3766.540612250099	1
0	11671	3766.830586684821	0
0	11694	3772.010837644797	1
0	11697	3775.515943664632	0
0	11752	3808.538723294352	1
0	11753	3809.163360222089	0
0	11761	3810.750962790901	1
0	11763	3814.164361944241	2
0	11766	3816.331591177007	1
0	11774	3817.005014323743	2
0	11775	3819.544947716221	1
0	11780	3819.926191599278	0
0	11787	3821.563510011259	1
0	11788	3822.661915749333	0
0	11809	3832.852411771426	1
0	11811	3833.961727243363	2
0	11816	3841.914158293895	1
0	11821	3841.965126328597	0
0	11827	3842.578788471733	1
0	11830	3843.202517842833	2
0	11836	3847.214149211165	1
0	11841	3847.292732101469	0
0	11874	3857.41473060491	1
0	11876	3860.17250756378	2
0	11877	3860.692802756039	1
0	11884	3862.864557511323	2
0	11888	3864.726426094962	1
0	11894	3870.67972683943	0
0	11915	3878.800745881524	1
0	11921	3880.292986971052	2
0	11925	3881.379235010833	3
0	11926	3881.796394346957	2
0	11931	3883.57444617027	1
0	11938	3884.552886407981	0
0	11951	3886.955155913508	1
0	11953	3887.5648448778	0
0	11960	3889.792934779974	1
0	11962	3890.415586905379	0
0	11968	3893.742666716986	1
0	11971	3894.636054636112	2
0	11972	3896.284289820164	1
0	11979	3896.516304482062	0
0	11992	3900.107485958598	1
0	11995	3902.173418631111	0
0	12017	3904.356988573206	1
0	12018	3905.113595291562	0
0	12038	3909.850349282523	1
0	12039	3911.195713379023	0
0	12056	3916.472632230977	1
0	12057	3918.325418985787	0
0	12068	3919.635023424077	1
0	12069	3919.853694619228	0
0	12075	3920.219194016991	1
0	12079	3922.824421318317	2
0	12080	3923.064956285905	1
0	12087	3923.803085027252	2
0	12088	3924.005830962182	1
0	12094	3925.088849830239	0
0	12107	3927.502620021201	1
0	12109	3928.131163903933	2
0	12113	3933.296438805922	3
0	12115	3933.979129047736	4
0	12116	3934.37256832331	3
0	12121	3936.504084008284	2
0	12128	3937.104623961155	3
0	12129	3937.326023954667	2
0	12135	3937.919537911806	3
0	12136	3938.777590049186	2
0	12145	3940.398066890895	1
0	12153	3943.954836156916	2
0	12159	3946.560033998372	3
0	12160	3946.862566403366	2
0	12166	3953.201480326011	1
0	12172	3954.096348456254	2
0	12175	3958.452873466433	3
0	12176	3958.744916745274	2
0	12182	3958.814442765899	3
0	12183	3958.958853945423	2
0	12190	3960.241173018566	1
0	12195	3960.912759224176	0
0	12265	3983.651229634536	1
0	12268	3988.122518727522	0
0	12289	3999.408611070519	1
0	12294	4000.750269399731	2
0	12295	4004.464876738126	1
0	12302	4006.628150869095	0
0	12325	4010.2618876287	1
0	12327	4010.761379354875	2
0	12329	4011.395497333848	3
0	12331	4012.02028670546	4
0	12335	4015.261266926739	5
0	12336	4015.951763267965	4
0	12341	4016.131685818052	3
0	12347	4016.313700309646	4
0	12349	4016.462759951821	5
0	12351	4017.569794931959	6
0	12352	4018.904989574328	5
0	12358	4019.508487918352	6
0	12363	4022.454229813805	7
0	12366	4023.294903342751	8
0	12367	4023.684534111932	7
0	12373	4024.22030678108	6
0	12378	4024.775260329858	5
0	12385	4026.536951443179	6
0	12391	4028.722575713716	7
0	12392	4028.959165983656	6
0	12397	4029.054526766175	5
0	12403	4030.32975532878	4
0	12413	4032.090800622737	3
0	12419	4033.012457970746	4
0	12427	4043.723672314112	5
0	12428	4043.904127767544	4
0	12436	4049.758120944999	3
0	12442	4051.156269994537	4
0	12444	4054.14185708782	3
0	12452	4054.674382754254	2
0	12466	4058.677130553851	3
0	12468	4059.898407459361	4
0	12469	4061.849584768976	3
0	12477	4066.063930966971	4
0	12479	4066.276004420134	5
0	12481	4066.473635428766	6
0	12483	4068.723001525808	5
0	12488	4070.071377270861	4
0	12494	4071.391739293478	5
0	12497	4075.636766307222	4
0	12502	4076.07164792147	3
0	12512	4082.975584477015	4
0	12516	4087.278793530158	5
0	12520	4088.710256595179	6
0	12522	4088.740331654899	7
0	12523	4089.271966696525	6
0	12531	4090.484072566076	5
0	12537	4090.958573649912	4
0	12542	4092.492028457387	3
0	12549	4095.354309503155	2
0	12554	4095.873563899361	1
0	12558	4096.221462856846	2
0	12563	4098.669115424285	1
0	12569	4100.645359329658	2
0	12570	4100.916315079323	1
0	12576	4102.205018037667	2
0	12584	4107.454389414621	3
0	12586	4108.260291019592	4
0	12589	4110.1196268542	3
0	12595	4111.950034554915	2
0	12600	4112.89235350695	1
0	12607	4114.347519984395	0
0	12613	4114.709518691949	1
0	12616	4115.838750224296	0
0	12626	4117.287365504542	1
0	12627	4117.331075640189	0
0	12640	4118.975912599264	1
0	12644	4121.462914524786	2
0	12645	4121.816146479474	1
0	12652	4122.266982276242	0
0	12666	4123.275536532086	1
0	12668	4124.742800653887	0
0	12699	4128.197546798191	1
0	12705	4129.733779107199	0
0	12714	4134.460547375167	1
0	12719	4135.727339176958	2
0	12722	4136.282472218788	3
0	12723	4140.760911794137	2
0	12729	4141.094749903251	1
0	12735	4141.107707910813	2
0	12738	4141.995219228003	3
0	12739	4142.149936437719	2
0	12745	4142.541695153338	1
0	12752	4144.19453408947	0
0	12765	4149.125395321429	1
0	12766	4150.834072422243	0
0	12779	4154.001896411019	1
0	12787	4157.640986270541	2
0	12788	4162.619413067471	1
0	12793	4162.755509824937	0
0	12804	4163.408594940341	1
0	12808	4165.038626836155	2
0	12809	4165.376989975592	1
0	12815	4168.529940687979	0
0	12869	4183.323011384358	1
0	12870	4183.587351037941	0
0	12903	4193.645714873029	1
0	12904	4194.911190588861	0
0	12916	4197.692585958297	1
0	12919	4201.059087799202	0
0	12925	4201.095459964835	1
0	12927	4201.282161645415	2
0	12931	4203.731279225481	1
0	12936	4204.248839385908	0
0	12944	4205.705611900403	1
0	12946	4208.932647670895	0
0	12953	4210.308047138405	1
0	12956	4212.821186673713	0
0	12978	4214.097264787666	1
0	12979	4214.125575361549	0
0	12989	4215.341105617618	1
0	12991	4217.378735920169	2
0	12995	4219.290428735444	3
0	12997	4219.682443189993	4
0	13000	4220.590747068308	3
0	13005	4220.905360011836	2
0	13013	4223.556377493178	3
0	13017	4225.574639828019	4
0	13018	4226.570631803807	3
0	13024	4226.586696795372	4
0	13027	4227.253736518319	3
0	13034	4228.267350451794	4
0	13039	4229.808451518841	5
0	13040	4230.325342698133	4
0	13047	4231.191695467079	3
0	13055	4233.362219536134	2
0	13064	4234.385247434029	1
0	13069	4235.152397419016	0
0	13078	4236.316648775737	1
0	13082	4237.446498970538	0
0	13108	4245.822325256749	1
0	13112	4248.561888396348	0
0	13121	4249.591059573584	1
0	13123	4250.04445373119	2
0	13125	4251.811711840558	3
0	13129	4252.143500862783	4
0	13130	4252.222560264172	3
0	13135	4252.573636557821	2
0	13141	4253.460286795084	3
0	13143	4255.957174028419	4
0	13144	4255.976108161097	3
0	13153	4258.872170858969	2
0	13158	4261.829322411959	1
0	13163	4263.572070093272	0
0	13169	4263.617079105165	1
0	13170	4265.587254554231	0
0	13192	4269.778998848082	1
0	13196	4272.56903546516	2
0	13200	4274.387440276104	3
0	13201	4274.689595112971	2
0	13208	4275.486416968142	1
0	13218	4282.080933370481	0
0	13234	4289.670266004804	1
0	13235	4293.046537925003	0
0	13244	4295.434227211024	1
0	13246	4295.745548896255	2
0	13247	4295.797715766907	1
0	13254	4297.482212995227	2
0	13259	4301.211302837028	3
0	13260	4301.65006634399	2
0	13265	4302.240359659374	1
0	13271	4303.074322344964	0
0	13285	4305.212047549604	1
0	13286	4306.308683721459	0
0	13305	4313.089184974129	1
0	13306	4313.467406464835	0
0	13319	4316.653425989638	1
0	13320	4318.272897184029	0
0	13331	4318.970763221723	1
0	13332	4319.003963794118	0
0	13371	4334.235380207515	1
0	13373	4336.265540641462	2
0	13375	4336.524893445742	3
0	13377	4336.600105706125	4
0	13379	4336.888589019569	5
0	13380	4337.490279952136	4
0	13387	4338.780103065739	5
0	13390	4342.335256272941	4
0	13400	4343.506399330327	5
0	13403	4344.742867203659	6
0	13405	4344.82159842766	7
0	13407	4346.266285492598	6
0	13413	4346.899285907745	7
0	13418	4349.007207599651	6
0	13423	4349.227538793773	5
0	13435	4350.692084497433	4
0	13445	4352.769633096051	3
0	13450	4353.660505977978	2
0	13455	4353.847810318379	1
0	13462	4354.25052868349	2
0	13464	4355.870885851502	1
0	13474	4357.839619277492	2
0	13477	4358.306705592885	3
0	13479	4359.022506570824	2
0	13485	4360.294914028254	1
0	13491	4363.975696439086	0
0	13503	4364.911601992535	1
0	13504	4365.472400952355	0
0	13523	4368.133203106176	1
0	13525	4368.156957576216	2
0	13526	4370.976535233984	1
0	13533	4371.194708470915	2
0	13537	4374.507669708329	1
0	13544	4376.347890622616	2
0	13546	4377.832161004124	1
0	13552	4378.011844112608	2
0	13554	4378.296968572617	3
0	13556	4379.333361099536	4
0	13557	4379.882009281238	3
0	13567	4382.508258191365	4
0	13572	4383.837786889263	5
0	13575	4386.108245226191	4
0	13580	4386.464274612548	3
0	13585	4386.667326091539	2
0	13591	4387.307571223942	3
0	13594	4388.179452575736	2
0	13601	4390.156938091556	3
0	13603	4393.625708984972	4
0	13609	4397.04510877498	3
0	13614	4397.485753896858	2
0	13620	4400.022146680347	1
0	13626	4400.123820614389	2
0	13627	4400.518528970468	1
0	13632	4402.739011245996	0
0	13638	4403.114759115962	1
0	13639	4403.231410573678	0
0	13664	4412.297063567605	1
0	13665	4412.946156261108	0
0	13676	4415.256889538863	1
0	13677	4418.829122194396	0
0	13713	4429.484436698237	1
0	13716	4429.819970937098	0
0	13722	4431.091936280846	1
0	13725	4433.24662170263	2
0	13726	4434.264972536679	1
0	13732	4434.905449076053	2
0	13733	4434.908142973964	1
0	13740	4436.556831732604	2
0	13742	4437.381301918309	3
0	13743	4437.70819023728	2
0	13751	4440.513902472718	1
0	13759	4442.639654100156	2
0	13760	4445.202386373483	1
0	13765	4445.261081643558	0
0	13777	4447.480595354694	1
0	13779	4447.908140564114	2
0	13780	4451.063882310093	1
0	13790	4454.202184502612	0
0	13797	4455.006479497102	1
0	13798	4458.433023078646	0
0	13815	4464.361713988694	1
0	13816	4465.496835797429	0
0	13822	4467.131437694441	1
0	13826	4468.626010594761	2
0	13827	4468.807627122114	1
0	13832	4469.07322599526	0
0	13842	4471.662666728445	1
0	13843	4473.666453884508	0
0	13849	4473.745631988018	1
0	13850	4473.775267591975	0
0	13863	4475.98844947105	1
0	13866	4478.120246380233	0
0	13885	4484.452693995444	1
0	13887	4487.811993844055	2
0	13889	4488.993201256826	3
0	13890	4489.354214592511	2
0	13899	4491.316062064507	3
0	13903	4496.75165850859	4
0	13905	4497.925758240064	5
0	13909	4500.224683741164	6
0	13910	4502.599698642584	5
0	13916	4503.292879350023	4
0	13922	4504.643003090644	5
0	13925	4505.742856677219	4
0	13930	4505.887750173885	3
0	13936	4507.534304121315	4
0	13938	4508.47238658291	3
0	13945	4510.531299989584	2
0	13950	4510.574281919297	1
0	13956	4511.342501803651	2
0	13958	4513.625732620322	1
0	13964	4513.908122854652	2
0	13968	4518.352277888143	3
0	13971	4519.345865499236	4
0	13972	4519.767909838158	3
0	13979	4519.987463845579	2
0	13992	4521.868020530597	3
0	13994	4522.35053299928	4
0	13998	4525.109113235075	3
0	14004	4527.453750554175	2
0	14011	4530.372124506084	1
0	14020	4533.440905635561	2
0	14024	4535.664890937722	1
0	14032	4536.767731200534	2
0	14033	4537.855024858019	1
0	14039	4544.187793896637	0
0	14055	4546.305881620375	1
0	14058	4547.246415744997	0
0	14073	4550.073676299575	1
0	14074	4551.554059627287	0
0	14122	4558.987026175015	1
0	14124	4559.350362258945	2
0	14125	4562.267849284688	1
0	14131	4562.83067030668	0
0	14138	4564.202774781372	1
0	14140	4566.580262130137	0
0	14167	4575.788582741468	1
0	14168	4576.697560818379	0
0	14174	4577.281551740094	1
0	14177	4580.96324604881	2
0	14182	4582.137143341896	1
0	14187	4582.478435529764	0
0	14193	4582.514797477497	1
0	14197	4585.143782530208	2
0	14202	4586.600821732171	1
0	14207	4587.434881707781	0
0	14218	4589.027207453998	1
0	14219	4589.108971889704	0
0	14231	4592.551024535089	1
0	14233	4592.719993651536	2
0	14235	4593.134248189275	3
0	14237	4593.783197008584	4
0	14239	4594.282042771625	3
0	14245	4594.754415010266	4
0	14247	4595.162709288498	5
0	14248	4595.44663633517	4
0	14257	4596.631320174546	3
0	14262	4597.394596871566	2
0	14269	4599.624047608404	3
0	14273	4600.086147742651	4
0	14275	4600.299582393365	5
0	14278	4602.185529793283	4
0	14285	4603.959999640058	3
0	14292	4605.825633098044	4
0	14294	4605.833486143019	5
0	14300	4608.338772695948	6
0	14301	4611.190717742024	5
0	14306	4612.405216103301	4
0	14313	4615.262154571288	3
0	14318	4616.524760806218	2
0	14323	4617.368710680757	1
0	14328	4619.186380716538	0
0	14334	4620.542672148281	1
0	14335	4622.233535576665	0
0	14353	4625.13841668092	1
0	14355	4625.29074977097	2
0	14361	4628.416224657341	3
0	14362	4629.912935760468	2
0	14368	4631.357410070875	1
0	14373	4631.700588942889	0
0	14384	4633.38640776787	1
0	14386	4633.572942972624	2
0	14390	4635.459270055076	3
0	14394	4639.072218221268	2
0	14400	4644.462439589139	1
0	14408	4647.888497910379	0
0	14421	4651.631740319995	1
0	14424	4653.971022853727	2
0	14426	4654.13743173045	3
0	14428	4654.494942893779	4
0	14429	4656.936453061014	3
0	14437	4659.696470315388	4
0	14439	4662.56817706746	5
0	14440	4662.611933107413	4
0	14450	4663.024350130334	5
0	14451	4663.539227713205	4
0	14457	4664.10953551158	5
0	14460	4668.557780346627	4
0	14465	4669.02838814638	3
0	14471	4670.177853151187	2
0	14479	4673.170062321197	1
0	14484	4674.039572784445	0
0	14496	4676.865819495924	1
0	14498	4678.281632736409	2
0	14501	4680.46003659259	1
0	14512	4681.208010812428	2
0	14514	4681.285124611752	3
0	14517	4681.996598067576	2
0	14523	4682.016218521255	3
0	14529	4690.63064797405	2
0	14534	4690.674998874795	1
0	14541	4691.81754300987	2
0	14542	4693.355544824383	1
0	14549	4694.386281089227	0
0	14556	4694.993856643137	1
0	14558	4695.752891468003	0
0	14577	4701.144783779225	1
0	14578	4701.562200004186	0
0	14624	4717.716135961938	1
0	14625	4719.776413446214	0
0	14642	4723.723073958812	1
0	14643	4723.889900605138	0
0	14650	4726.57027970272	1
0	14652	4727.22257145429	2
0	14653	4729.751705563322	1
0	14659	4730.223322204854	2
0	14661	4734.286272281269	1
0	14667	4734.87701951462	0
0	14678	4737.120895508682	1
0	14681	4738.693546863215	0
0	14695	4743.517393718546	1
0	14699	4746.527243682264	2
0	14703	4749.151282781255	3
0	14707	4751.198635548891	4
0	14709	4751.393319751622	5
0	14713	4755.051781774125	4
0	14718	4755.510567553679	3
0	14725	4755.871311732753	2
0	14731	4758.727151895501	1
0	14738	4760.094904442795	2
0	14746	4766.988296705298	1
0	14751	4767.990022451429	0
0	14757	4768.326325321243	1
0	14758	4768.720163156707	0
0	14764	4769.286951735828	1
0	14765	4770.426014020481	0
0	14786	4773.649727307725	1
0	14788	4775.214339065574	2
0	14796	4783.805342208334	1
0	14805	4786.289478472116	0
0	14816	4789.45096244342	1
0	14821	4792.239490225564	2
0	14822	4792.658370751833	1
0	14827	4793.83595098036	0
0	14841	4797.865649499571	1
0	14843	4797.918198011407	2
0	14845	4797.936325120646	3
0	14847	4797.992315440276	4
0	14848	4804.131935782108	3
0	14855	4805.211353608084	4
0	14856	4805.558945047825	3
0	14864	4807.236671097222	4
0	14865	4807.64076387466	3
0	14875	4809.296498615304	2
0	14885	4812.535761683459	1
0	14891	4813.351418532418	0
0	14897	4814.172586694547	1
0	14898	4814.242354298722	0
0	14904	4815.737213693149	1
0	14906	4816.335388689418	0
0	14917	4821.086104531011	1
0	14919	4821.708886605146	2
0	14920	4822.172291261526	1
0	14926	4822.454250663706	2
0	14927	4822.613731005486	1
0	14935	4826.832591429617	0
0	14941	4826.919942497533	1
0	14944	4828.96734389091	2
0	14951	4831.439835589339	1
0	14961	4833.609984102909	2
0	14962	4834.100612451175	1
0	14967	4834.280421755475	0
0	14989	4839.678470204888	1
0	14990	4840.722428948669	0
0	15003	4844.166293598734	1
0	15005	4845.480532609121	2
0	15010	4847.879432213559	1
0	15019	4850.271885767198	2
0	15022	4850.909223777567	1
0	15031	4853.613762694205	2
0	15032	4854.484713671343	1
0	15042	4858.829651699322	0
0	15053	4860.455631515561	1
0	15057	4862.65160929367	0
0	15064	4863.759336824877	1
0	15065	4867.530050346869	0
0	15082	4871.952359329829	1
0	15083	4871.989733551728	0
0	15108	4878.379313595985	1
0	15114	4883.441175463298	2
0	15115	4883.535957712721	1
0	15121	4884.852429394265	0
0	15135	4887.204161074053	1
0	15139	4890.906083119798	0
0	15157	4894.821171930139	1
0	15158	4895.045694325581	0
0	15166	4895.370069075946	1
0	15167	4896.436807209002	0
0	15181	4898.609833175414	1
0	15182	4901.267943654439	0
0	15193	4906.668071483986	1
0	15194	4909.898316389118	0
0	15224	4916.405313701137	1
0	15225	4916.80351269196	0
0	15234	4917.436981854082	1
0	15237	4918.578562506266	0
0	15245	4922.400277846865	1
0	15246	4923.169313858567	0
0	15253	4924.129584024788	1
0	15254	4924.514592555946	0
0	15263	4926.125692554893	1
0	15267	4927.600029980332	2
0	15273	4931.223069985054	1
0	15278	4931.680875736561	0
0	15291	4933.077782187359	1
0	15297	4937.50287276343	0
0	15304	4938.423527051347	1
0	15306	4938.455989890008	2
0	15307	4938.684599851695	1
0	15313	4941.180841514718	2
0	15314	4941.98220380443	1
0	15321	4942.711902228744	2
0	15325	4945.741348363917	1
0	15334	4956.462557512179	2
0	15335	4957.200905967691	1
0	15343	4958.348746046164	0
0	15370	4965.623198520564	1
0	15372	4972.56296345036	0
0	15400	4989.33743155815	1
0	15401	4990.066095924797	0
0	15408	4992.069487243151	1
0	15411	4993.230569369497	0
0	15446	4998.563142742398	1
0	15452	5002.081126633215	2
0	15453	5002.21547227737	1
0	15459	5002.23953047736	2
0	15463	5006.209922120484	1
0	15469	5006.74207569531	0
0	15475	5006.886672627143	1
0	15479	5010.002687683143	0
0	15504	5019.57115533184	1
0	15505	5020.164481839371	0
0	15514	5021.585926130156	1
0	15515	5021.708053361983	0
0	15524	5022.308268485292	1
0	15529	5024.472570993827	0
0	15556	5030.330196865721	1
0	15557	5035.512267982976	0
0	15576	5041.846216209586	1
0	15577	5042.449496910834	0
0	15591	5046.758002848854	1
0	15592	5047.476313708668	0
0	15606	5055.965817848543	1
0	15614	5061.44816418458	2
0	15615	5066.46672510566	1
0	15621	5066.555817326308	0
0	15630	5069.321101959332	1
0	15634	5070.140288497391	0
0	15643	5073.558382413639	1
0	15644	5073.721673039034	0
0	15664	5076.805155134117	1
0	15665	5077.993557071894	0
0	15672	5078.713056518575	1
0	15674	5080.623094981729	2
0	15675	5081.618279928119	1
0	15680	5082.552118645738	0
0	15695	5086.242032961132	1
0	15698	5087.445454905547	0
0	15710	5090.264346194239	1
0	15712	5090.423057593954	2
0	15713	5091.105201257143	1
0	15720	5092.789151170366	2
0	15723	5094.664090461586	3
0	15727	5095.676485316802	4
0	15728	5095.866020683685	3
0	15733	5096.108714611838	2
0	15743	5099.304749589023	3
0	15746	5100.473808205535	2
0	15753	5100.918718732557	3
0	15754	5101.39729139004	2
0	15759	5102.799252323089	1
0	15764	5102.909941992849	0
0	15770	5103.083214242668	1
0	15773	5104.428668884812	0
0	15793	5111.538706338061	1
0	15795	5112.58739678612	2
0	15799	5117.557011031944	3
0	15800	5120.667022799056	2
0	15805	5121.166567623703	1
0	15811	5121.621357189141	0
0	15841	5125.420846344799	1
0	15845	5126.462313720262	0
0	15860	5128.32641066209	1
0	15865	5130.386716845258	0
0	15884	5139.500161394263	1
0	15886	5140.4537709012	2
0	15887	5140.676852962787	1
0	15895	5142.045000187304	0
0	15908	5147.472008146805	1
0	15913	5150.02830774231	0
0	15925	5154.280705295257	1
0	15926	5154.488733939079	0
0	15936	5164.86781146055	1
0	15940	5168.313226376205	2
0	15942	5168.659561005305	1
0	15949	5171.277308497877	2
0	15950	5171.320360909012	1
0	15956	5172.128639068568	2
0	15958	5172.995058745758	3
0	15961	5174.484257307913	4
0	15962	5174.486797425109	3
0	15970	5177.719451619654	2
0	15975	5179.610588707453	1
0	15983	5181.961388787062	2
0	15985	5182.013753443714	3
0	15986	5182.11003370985	2
0	15991	5182.273444794632	1
0	15998	5182.990838204638	2
0	16000	5183.2959983392	1
0	16009	5188.429062588104	0
0	16016	5189.799908611235	1
0	16017	5189.854872710527	0
0	16038	5198.306201852144	1
0	16039	5198.396146868931	0
0	16061	5203.202645655182	1
0	16062	5203.269932933906	0
0	16068	5203.608789218249	1
0	16069	5204.76544601258	0
0	16082	5208.036390543875	1
0	16084	5208.999644143349	2
0	16086	5209.519683922577	3
0	16087	5209.989883133331	2
0	16093	5210.125304920461	3
0	16095	5210.45263349466	4
0	16096	5210.458873024903	3
0	16109	5214.059794560319	2
0	16114	5215.614425847955	1
0	16120	5219.054762512269	0
0	16136	5223.56619746063	1
0	16139	5225.670146900699	0
0	16170	5238.158370031272	1
0	16174	5240.922016455468	0
0	16181	5244.396791632003	1
0	16182	5246.322749511132	0
0	16233	5271.193192056637	1
0	16237	5277.47922542196	2
0	16239	5278.436957941771	3
0	16241	5279.205334970332	4
0	16245	5280.126713888432	5
0	16246	5280.659722593747	4
0	16253	5283.786754535852	3
0	16258	5284.223229411763	2
0	16264	5284.312063208862	3
0	16266	5285.702243391405	2
0	16274	5287.422474477443	3
0	16275	5289.147276938854	2
0	16282	5291.893678183778	3
0	16284	5293.190595536567	4
0	16285	5295.207247993388	3
0	16294	5296.555605829374	4
0	16299	5297.795569331162	5
0	16302	5303.079179391007	4
0	16310	5303.882009519953	5
0	16312	5304.864377048989	6
0	16315	5305.648219833444	5
0	16322	5306.151839876832	4
0	16331	5308.304192511741	5
0	16333	5308.753884386474	6
0	16336	5310.448274480376	5
0	16343	5311.42689213766	6
0	16344	5311.683423316461	5
0	16350	5312.343089131676	4
0	16355	5313.683078702828	3
0	16364	5317.461524943738	2
0	16372	5318.263640887531	3
0	16374	5318.523951694809	4
0	16375	5318.56057278483	3
0	16381	5320.159702845849	2
0	16392	5321.514927690408	3
0	16394	5322.800493485099	2
0	16400	5322.984200738087	3
0	16402	5325.719144549154	2
0	16408	5328.017719937221	1
0	16415	5328.90729794119	0
0	16432	5335.501699294705	1
0	16433	5336.141820441766	0
0	16449	5336.759190592171	1
0	16451	5337.811354128771	0
0	16465	5340.7395231174	1
0	16471	5341.415116191615	2
0	16472	5343.604365827979	1
0	16479	5344.527028887979	2
0	16480	5346.651161188343	1
0	16485	5348.074140665771	0
0	16526	5361.8315304701	1
0	16528	5362.722708007303	2
0	16530	5365.860688651727	3
0	16532	5369.073474167253	4
0	16534	5370.014142604601	5
0	16539	5370.691805044486	4
0	16545	5371.775429343824	3
0	16552	5372.64517373086	4
0	16553	5373.835170809475	3
0	16559	5377.759951706771	2
0	16565	5378.938957033639	3
0	16566	5379.157027008243	2
0	16574	5379.952002627192	1
0	16579	5380.211930105022	0
0	16587	5381.153709268439	1
0	16589	5382.8725152896	2
0	16590	5383.992177842682	1
0	16596	5384.067617892751	2
0	16597	5384.593859355713	1
0	16604	5385.870493259912	0
0	16618	5386.893724176619	1
0	16621	5389.059853284276	0
0	16630	5391.289375656632	1
0	16632	5392.668522025497	2
0	16634	5394.185172918704	3
0	16637	5396.69502484225	2
0	16643	5398.072521665504	3
0	16646	5399.680625238032	2
0	16654	5406.268570780235	1
0	16662	5407.972510727761	0
0	16683	5417.018819939696	1
0	16684	5417.13255907247	0
0	16696	5420.675535180964	1
0	16699	5420.893283754462	0
0	16732	5428.109908722833	1
0	16737	5434.054179357798	2
0	16738	5434.107654017496	1
0	16743	5434.185347709852	0
0	16751	5435.748902356458	1
0	16754	5437.153923480654	0
0	16783	5443.928157712191	1
0	16785	5449.107479285608	0
0	16794	5450.674618974852	1
0	16795	5451.318597989699	0
0	16802	5452.340821524731	1
0	16803	5452.733767582347	0
0	16814	5453.620655596004	1
0	16815	5453.81279252079	0
0	16838	5460.387282165641	1
0	16839	5461.892305811718	0
0	16857	5467.221605707371	1
0	16859	5467.846974489808	2
0	16863	5468.739023039689	3
0	16864	5470.43137156152	2
0	16871	5472.942480293707	3
0	16872	5473.117467593118	2
0	16879	5474.947900998565	1
0	16885	5475.590898550834	2
0	16890	5480.927832428501	3
0	16891	5482.257182500495	2
0	16897	5483.94390210086	1
0	16902	5485.541447251176	0
0	16935	5497.899187923741	1
0	16936	5498.530867613748	0
0	16942	5499.284082716964	1
0	16944	5500.697198417005	0
0	16956	5502.249889133164	1
0	16960	5503.54275751678	0
0	16982	5507.487672818879	1
0	16984	5508.217115589914	2
0	16989	5512.948412752167	1
0	16994	5513.971307131363	0
0	17033	5528.863270645748	1
0	17034	5531.152143087105	0
0	17049	5533.770385676895	1
0	17051	5535.010182969596	2
0	17052	5539.959299873686	1
0	17060	5541.430416479547	2
0	17061	5542.052910857787	1
0	17067	5543.015013098222	0
0	17092	5550.426957481616	1
0	17093	5553.83780217113	0
0	17100	5555.092768507319	1
0	17101	5555.42784487134	0
0	17114	5557.289687553793	1
0	17118	5557.814868049758	2
0	17121	5558.213002393246	3
0	17123	5562.368687430229	4
0	17125	5563.39413342792	5
0	17126	5563.874204417026	4
0	17131	5565.680102525131	3
0	17137	5566.117517091667	2
0	17146	5567.344659226016	1
0	17152	5567.577416579787	0
0	17158	5568.841812458737	1
0	17161	5569.591320107021	0
0	17182	5576.178320448578	1
0	17183	5579.591314938478	0
0	17190	5580.01029743912	1
0	17193	5580.327758948233	2
0	17195	5580.331672208939	3
0	17198	5582.69199557012	4
0	17200	5584.539431172786	5
0	17206	5587.984278840997	6
0	17207	5588.441737103272	5
0	17212	5589.746602482836	4
0	17222	5595.351904421178	5
0	17223	5596.368329768904	4
0	17228	5596.970591625816	3
0	17234	5597.876466157642	4
0	17235	5598.626403102385	3
0	17240	5598.821046575214	2
0	17245	5601.263115767313	1
0	17252	5602.182548970974	2
0	17255	5608.553705539962	1
0	17262	5608.879798111564	2
0	17264	5609.270562438079	3
0	17267	5611.061303868888	4
0	17270	5611.329739164741	5
0	17271	5611.517243304628	4
0	17276	5613.181177177008	3
0	17282	5614.13632073255	4
0	17284	5615.090692419523	5
0	17285	5616.434252078913	4
0	17290	5616.976747912107	3
0	17294	5617.874160873281	4
0	17299	5620.195719962595	5
0	17305	5623.881126257216	6
0	17306	5625.556293638418	5
0	17314	5628.373876020633	6
0	17316	5628.968836492826	5
0	17321	5629.148905963549	4
0	17326	5629.784688787725	3
0	17332	5633.180879781721	2
0	17338	5636.512152808197	1
0	17344	5637.058295521347	2
0	17345	5637.27038242976	1
0	17350	5637.352439455328	0
0	17365	5639.694586836272	1
0	17372	5643.113075733795	2
0	17374	5643.30309660461	3
0	17375	5646.336721806208	2
0	17380	5646.880551759238	1
0	17385	5647.058021979494	0
0	17399	5649.73681295218	1
0	17400	5650.666067532392	0
0	17412	5652.277627585204	1
0	17414	5654.839547038754	2
0	17415	5654.914974962095	1
0	17421	5657.250360797685	2
0	17422	5659.103862089411	1
0	17428	5660.679201140543	0
0	17447	5662.526798183038	1
0	17448	5665.565475179833	0
0	17464	5668.646897574387	1
0	17466	5669.548091547277	2
0	17467	5672.48581092311	1
0	17475	5675.875927727512	0
0	17482	5676.745019572911	1
0	17483	5680.565273519549	0
0	17489	5681.237430128487	1
0	17497	5687.466105214177	2
0	17500	5689.584525626699	1
0	17505	5689.874310191968	0
0	17511	5690.605300123373	1
0	17514	5692.086587226464	0
0	17559	5701.611261456758	1
0	17562	5703.540142906048	0
0	17576	5705.990149490664	1
0	17580	5706.636569217474	2
0	17583	5707.276657138857	1
0	17592	5709.871516883674	2
0	17594	5713.180458136135	3
0	17597	5714.665486697568	2
0	17602	5714.785631643536	1
0	17609	5715.650500510992	0
0	17636	5721.415497761387	1
0	17640	5723.564416662829	0
0	17665	5732.89206028367	1
0	17668	5733.530434983894	2
0	17670	5735.634888363849	3
0	17672	5737.88282858424	4
0	17675	5741.678310490518	3
0	17682	5743.565146047264	4
0	17683	5746.590245617562	3
0	17689	5746.604016219463	4
0	17690	5746.919841802076	3
0	17696	5746.9778064372	4
0	17700	5747.640379178775	5
0	17703	5749.869637396642	4
0	17708	5750.901779471886	3
0	17714	5751.688195748158	4
0	17715	5751.786116279085	3
0	17721	5751.889525180626	4
0	17722	5752.327266752621	3
0	17735	5758.88887358653	2
0	17740	5760.148623419317	1
0	17746	5760.577767933104	2
0	17749	5761.837500088914	3
0	17750	5762.088421679799	2
0	17756	5762.648058437859	3
0	17760	5763.449091894142	4
0	17762	5763.88225542717	5
0	17763	5765.407766572318	4
0	17769	5766.821145011792	5
0	17772	5768.912691508728	4
0	17779	5769.870657090477	3
0	17785	5773.463525872999	2
0	17793	5775.876543063191	1
0	17798	5777.426413108546	0
0	17813	5781.085550041128	1
0	17815	5781.784662377471	2
0	17816	5782.374543547776	1
0	17822	5785.305205251359	0
0	17833	5785.56447552203	1
0	17835	5785.641418860515	2
0	17836	5786.042772153197	1
0	17843	5789.620003940084	2
0	17846	5790.357948411723	3
0	17849	5791.632963430082	2
0	17854	5791.661588561928	1
0	17864	5793.140040994631	0
0	17871	5794.132725285135	1
0	17872	5794.137704705485	0
0	17894	5801.725793715129	1
0	17895	5802.207612934256	0
0	17901	5802.248306079633	1
0	17904	5803.285385049032	0
0	17918	5805.858701535415	1
[...]
5	81881	26486.896846945814	6157.7858371687
5	81887	26489.831315803068	6156.6161328516
5	81901	26496.370107221647	6155.9957129861
5	82117	26552.873020566523	6184.2342845829
5	82211	26594.55576411038	6224.0065822906
5	82288	26612.404978584983	6229.7243947581
5	82293	26612.517149403407	6222.16839649
5	82298	26613.029046864385	6215.1121974602
5	82303	26613.662109968378	6215.2779095264
5	82308	26615.09515820436	6198.4974405846
5	82321	26624.089201438996	6205.0415830576
5	82351	26629.078861892844	6185.5144928299
5	82360	26633.413106763352	6178.4434520122
5	82367	26634.401710703491	6174.6323018571
5	82381	26638.663016928043	6175.4575301878
5	82403	26646.961971245694	6178.3996503167
5	82409	26647.831682270345	6169.6618358986
5	82416	26652.057816096107	6168.4929692983
5	82428	26653.818174087675	6159.3238560986
5	82460	26663.796844779517	6168.9002026712
5	82465	26665.644033864422	6168.9040052244
5	82473	26672.929976448886	6175.1927597754
5	82488	26674.958637152481	6168.7498606211
5	82617	26713.266647230409	6203.4624651768
5	82631	26717.666688567361	6205.9794460417
5	82685	26736.933713379036	6217.7648077655
5	82707	26739.84658719955	6213.8535773858
5	82714	26741.3888546567	6207.0335105779
5	82725	26744.409178327066	6209.9827425676
5	82734	26747.461469140939	6206.7919106839
5	82743	26751.137308583945	6198.3413710542
5	82748	26752.979813814634	6198.0545957368
5	82760	26754.602721415628	6198.6093876769
5	82780	26761.004080525674	6204.861510367
5	82785	26762.140452007907	6201.1849144903
5	82796	26771.096723125782	6204.1290961546
5	82815	26778.834481535844	6196.6457767028
5	82838	26787.232308075429	6204.1099612072
5	82848	26787.604724000217	6198.6963115234
5	82853	26788.100017597666	6198.0385960806
5	82863	26791.170729620713	6200.8289176014
5	82876	26806.774682687468	6203.5663903933
5	82984	26834.99042041903	6229.0709054593
5	82997	26836.36243527336	6205.3182221992
5	83018	26839.556929118664	6204.9985179116
5	83023	26840.901076741212	6201.9786333669
5	83030	26841.253549857565	6198.787549139
5	83046	26845.63495876866	6190.7479413096
5	83065	26854.305916315569	6197.392037184
5	83159	26888.130864947514	6229.2248351553
5	83212	26905.322336710081	6243.0905013693
5	83219	26906.467662715236	6227.3588179898
5	83258	26922.274474442349	6238.5000688991
5	83263	26922.860178681387	6237.5978122364
5	83271	26927.264976278482	6237.4454186699
5	83276	26928.045424632997	6235.9701500031
5	83287	26931.418559273033	6235.2022647261
5	83356	26950.057087973985	6251.6029161768
5	83363	26950.235449604059	6245.1188696768
5	83387	26959.035690048723	6245.2166034871
5	83392	26959.989336207685	6243.2159574622
5	83401	26967.115624751677	6250.0394200163
5	83540	27012.665021012942	6286.4341635639
5	83562	27018.489717054323	6284.7735416171
5	83567	27022.736471383241	6286.874459662
5	83572	27022.839483036778	6277.4545163255
5	83577	27023.428868596685	6272.2943470002
5	83582	27024.938627508947	6263.4656292628
5	83593	27026.709091820024	6262.7856723652
5	83789	27091.767678553979	6308.4577482483
5	83799	27095.069841485291	6301.8634510874
5	83848	27111.291622239615	6313.0339465673
5	83856	27113.058397026925	6313.4274371452
5	83863	27114.845013673976	6308.0390815967
5	83868	27116.304468995362	6308.3547980331
5	83877	27117.29046511125	6306.7392918478
5	83893	27122.605232893546	6308.6398909521
5	83916	27131.090442310919	6310.9073228384
5	84006	27155.469386752707	6325.4392989668
5	84165	27197.689031900717	6358.3457772162
5	84186	27203.456764469891	6352.6256392808
5	84192	27204.655339293454	6353.0687718966
5	84197	27205.948422104176	6353.5859392993
5	84213	27210.949923479797	6358.1476782985
5	84325	27249.102820246332	6390.9972861215
5	84337	27254.854963711222	6388.4335733123
5	84351	27258.60346664826	6385.4011041392
5	84403	27273.249995438303	6385.9304032224
5	84408	27274.053004991861	6385.7926646809
5	84415	27276.726464913671	6388.2850308744
5	84420	27277.351202989117	6384.1253247022
5	84425	27277.654347795781	6366.3725968238
5	84430	27278.952458587629	6365.9104120725
5	84435	27279.195017248753	6354.7647099018
5	84444	27280.226262245306	6350.9639674864
5	84471	27289.542976365993	6358.0810194119
5	84517	27309.643675309141	6378.1590594913
5	84528	27313.956280383092	6380.1200379676
5	84536	27317.698330225568	6378.0014819829
5	84585	27327.728686708939	6382.1752351482
5	84597	27328.330680505117	6382.1099850282
5	84642	27333.807016952335	6385.637400835
5	84678	27346.219329994234	6391.4710929075
5	84688	27346.684581061452	6390.5713897433
5	84703	27352.300573101162	6392.9066954412
5	84724	27364.98545536002	6401.0985031296
5	84729	27366.185582848814	6382.9979505352
5	84736	27367.61134896134	6383.6115706902
5	84761	27376.984547257257	6384.900247247
5	84781	27387.70090626011	6388.6958010699
5	84786	27387.740852863306	6385.8655596537
5	84799	27390.467610181494	6388.118655561
5	84847	27408.409112183575	6387.5890107649
5	84867	27413.65750973077	6379.1239355034
5	84877	27415.657344796187	6380.600373525
5	84882	27417.511076080773	6369.9828605582
5	84889	27421.242022421738	6373.2161200843
5	84901	27422.695579790392	6371.9317637028
5	84906	27423.186402987137	6370.5027234622
5	84913	27424.981381372463	6361.8150486677
5	84923	27427.106119162498	6361.7046145494
5	84930	27428.533759410262	6359.8688780541
5	84935	27429.824413996029	6356.8342417327
5	84945	27432.98363552363	6351.5968986137
5	84950	27439.564436731106	6357.1856735152
5	84955	27441.317294955042	6353.1998458197
5	84966	27449.696244232095	6360.3099802289
5	85003	27464.705645595469	6374.5181434414
5	85046	27476.812750409347	6382.7312402482
5	85052	27477.188649657644	6382.5311194434
5	85067	27486.318298146846	6389.8033213626
5	85177	27510.411757860194	6411.1542365172
5	85211	27518.964184346797	6419.6607556464
5	85221	27522.56224914289	6405.4793780817
5	85285	27536.119004158238	6417.911197113
5	85290	27539.026260999107	6408.1808215953
5	85296	27539.665583743001	6403.1254942117
5	85304	27543.610654365766	6406.3401327884
5	85313	27547.854766946256	6394.9629186989
5	85481	27603.640103062286	6449.3935812544
5	85486	27604.188819656308	6447.7168812184
5	85497	27606.476933202594	6447.4174216199
5	85591	27641.108496975586	6474.376380491
5	85602	27644.007137051836	6462.4259621012
5	85624	27654.932353725677	6463.0888366704
5	85629	27655.56629894011	6462.8924419227
5	85634	27657.699750431192	6456.8789328669
5	85639	27658.743870611896	6436.7010084431
5	85644	27660.044618829104	6427.9456133195
5	85649	27661.998357690967	6415.1796479305
5	85655	27663.243739539936	6414.4569535171
5	85662	27665.5455073798	6415.1706963422
5	85689	27672.730575556148	6416.9602919795
5	85704	27673.447823933679	6416.1096536221
5	85715	27677.624855567339	6419.6962443858
5	85744	27685.060051848582	6426.4999575779
5	85749	27686.37829254303	6426.3643042151
5	85758	27690.920782181741	6425.9479896757
5	85777	27695.778615740028	6415.599074719
5	85782	27696.552905715922	6409.298295299
5	85796	27704.008019198418	6399.6171647077
5	85935	27741.623533253223	6435.6284177935
5	85941	27741.769620443306	6425.3158214214
5	85947	27742.446551301873	6421.9150018428
5	85952	27742.778329133388	6420.2748822335
5	85957	27743.114403078866	6420.2258677828
5	85976	27750.995556059811	6421.7186303323
5	86185	27828.323473180387	6498.6507839264
5	86200	27835.77048784997	6496.9089474224
5	86253	27853.551700792372	6510.3314393138
5	86266	27857.64545258552	6501.3055194958
5	86276	27861.322293698696	6490.4371978753
5	86287	27862.043136677862	6490.4288280092
5	86294	27863.079260767063	6490.7261079677
5	86303	27864.984279873493	6486.1574533901
5	86308	27867.593040598125	6486.1990003903
5	86321	27875.60734035412	6486.3240185176
5	86344	27881.355005765592	6490.7559878935
5	86349	27883.246340432805	6492.0383040464
5	86358	27886.611970838196	6480.8094359413
5	86363	27888.022857515233	6472.3058371462
5	86374	27895.066693166349	6470.8030851401
5	86535	27936.03822304224	6511.4307448339
5	86545	27937.868921536039	6507.3102155521
5	86558	27942.306403178398	6508.8903834501
5	86569	27945.525516141637	6498.0424655829
5	86574	27946.432704714937	6484.5233424911
5	86582	27947.740846754663	6468.6872405363
5	86597	27954.0728801757	6467.7779720615
5	86681	27984.255104147835	6494.7575713035
5	86686	27985.740029635704	6493.1630490701
5	86691	27986.849120687569	6494.0792309538
5	86702	27990.696661861212	6497.1548924752
5	86775	28007.685813243865	6513.3997926451
5	86786	28014.621372837553	6518.4418111221
5	86964	28082.210242025353	6560.8681512377
5	86983	28088.952300986452	6556.5533336006
5	86990	28093.082902117837	6560.4644081809
5	86995	28093.226075018541	6560.0892428038
5	87000	28093.50792582238	6553.0988266149
5	87006	28096.490147531956	6534.9235008295
5	87015	28097.222013737021	6532.427891356
5	87040	28101.602835293699	6533.8548991897
5	87047	28108.370638683917	6535.2639257138
5	87058	28116.000038876638	6527.9119646274
5	87081	28134.764701485653	6539.6999443014
5	87114	28148.818411218626	6550.3903968469
5	87121	28150.008797619762	6548.6289406267
5	87137	28155.328772701612	6526.2623181334
5	87143	28158.106008140712	6528.2809367903
5	87152	28162.883856085461	6532.2619653233
5	87178	28174.296115284521	6542.5146645093
5	87185	28176.588595450396	6535.7564653295
5	87205	28182.602331161445	6541.6526581983
5	87213	28185.630207204116	6542.9911381327
5	87230	28189.019824705417	6531.2664856697
5	87243	28192.589309798878	6534.165246726
5	87250	28196.53497942545	6537.4763391895
5	87261	28197.543224928404	6536.0752762117
5	87270	28201.339419405781	6535.5356069718
5	87275	28202.336745561494	6527.0720475438
5	87283	28207.272870763732	6520.4931195132
5	87296	28210.722798776414	6522.0457420361
5	87303	28213.238692663401	6516.3305115927
5	87325	28228.056144278565	6528.4487335881
5	87344	28233.731782964496	6532.0743753672
5	87350	28235.31888082265	6524.3002403374
5	87355	28235.443595491304	6517.2013570512
5	87360	28235.941520519624	6514.5640183391
5	87372	28239.019262907762	6498.8021849939
5	87398	28246.516827062845	6500.2476545332
5	87410	28249.150050811992	6500.6367194681
5	87441	28260.284868595991	6510.3105485231
5	87465	28267.07346709722	6516.5378698553
5	87472	28273.188486622647	6520.9893917317
5	87477	28276.096077664969	6509.1552530922
5	87483	28277.269185379511	6509.394211286
5	87490	28277.670588903699	6508.0847027647
5	87508	28282.983649117776	6510.1185786465
5	87529	28290.959467664941	6514.5054424586
5	87542	28293.980784688138	6515.7473073216
5	87558	28300.283596218226	6521.8428869864
5	87569	28305.239095259456	6526.4984070093
5	87618	28341.971854361163	6562.8594339122
5	87625	28342.446462839209	6557.1093932062
5	87644	28353.756979735426	6558.5847199555
5	87893	28427.387029564157	6620.9843606289
5	87981	28448.028740824088	6636.101134119
5	87996	28448.946747370446	6629.1614013006
5	88008	28451.520122045428	6627.4840724048
5	88086	28469.879606137929	6644.8548361526
5	88097	28470.882197291217	6645.2930062422
5	88108	28472.267454200516	6640.6534571926
5	88121	28473.46432295634	6641.4474979693
5	88126	28475.499600709742	6638.956912387
5	88138	28479.41461158193	6629.9477608413
5	88163	28484.649087276462	6629.6907054473
5	88168	28484.854440035563	6621.4681997666
5	88173	28485.471602743365	6619.1686812099
5	88178	28487.28250252567	6619.7372323379
5	88191	28490.574884876214	6614.8608316311
5	88219	28498.739216455631	6619.1466049484
5	88226	28500.343758979206	6613.898397855
5	88245	28504.65017764426	6607.7438342746
5	88264	28514.570239256992	6597.7481763293
5	88467	28563.575671395034	6644.7234879124
5	88500	28569.607250693563	6638.8654384814
5	88505	28572.91386239129	6638.3611364096
5	88510	28574.620006418653	6639.6215869172
5	88516	28575.072252676529	6638.7665808016
5	88521	28575.14636021441	6632.7983124479
5	88528	28576.458255917367	6629.338233878
5	88543	28581.463143752493	6629.3797409909
5	88550	28584.583962344245	6625.461803004
5	88567	28591.71741634041	6629.1928447258
5	88582	28605.492975068229	6641.791255773
5	88605	28610.269787100428	6642.837331589
5	88628	28619.609962356628	6651.2672509077
5	88635	28621.620106316949	6651.8551708396
5	88650	28624.201370306248	6651.7862986444
5	88669	28627.775182024833	6627.4959143177
5	88686	28629.828555757368	6625.0482330188
5	88700	28639.018303278658	6633.4636103773
5	88721	28647.787852507601	6617.7542532968
5	88733	28649.947889230348	6616.5883174139
5	88744	28657.010655645081	6622.5375662813
5	88772	28664.578703619621	6621.3930682525
5	88793	28672.098293017013	6628.144005102
5	88824	28678.299290753744	6627.1577827481
5	88833	28680.595203725111	6618.9850330657
5	88844	28684.136379467595	6611.6300313162
5	88851	28687.098547371495	6601.3022502349
5	88856	28687.939136050252	6594.6604546518
5	88861	28689.250605899031	6593.6485411964
5	88868	28690.405003342969	6593.167926776
5	88876	28692.369332206796	6595.0876751422
5	88899	28697.764268073536	6598.1891811597
5	88912	28703.953040560283	6596.4325431891
5	88923	28712.462185787379	6601.6856325054
5	88937	28720.853886065006	6601.7916419227
5	88954	28722.379407571512	6601.1893500619
5	88970	28729.649255684199	6605.7220590026
5	88978	28733.170368816449	6601.7281035241
5	88994	28737.443909582191	6605.9428399339
5	89001	28738.694168771745	6599.934038472
5	89008	28741.780716272316	6576.4663901361
5	89025	28750.022086749276	6568.6488014574
5	89038	28754.234184071039	6569.7371776311
5	89045	28757.792449419344	6571.2481473686
5	89093	28768.329564548389	6565.1412384533
5	89101	28772.282909014541	6563.8258706969
5	89112	28778.57278402766	6567.1519141569
5	89125	28785.194041212615	6571.838076698
5	89156	28789.094677482994	6571.001166304
5	89183	28795.138301477795	6574.0168164016
5	89188	28795.233168080653	6573.6713506387
5	89199	28798.444218760041	6566.6841594511
5	89294	28824.440772346549	6591.6589000199
5	89307	28830.59080567289	6597.6505902339
5	89330	28834.186207102175	6600.9062133428
5	89339	28836.415369811824	6594.5969924728
5	89376	28843.087325467151	6596.7003086945
5	89396	28855.460975138946	6599.8030316557
5	89408	28859.416353734608	6584.4101718095
5	89413	28859.58836387443	6583.8375879518
5	89422	28863.245943555481	6586.5692133913
5	89475	28885.016059868338	6601.5694838715
5	89483	28887.904067975865	6603.7613012656
5	89512	28898.076855532299	6604.1519434958
5	89523	28903.768830760962	6598.8684498647
5	89548	28906.952482388092	6601.2584573598
5	89568	28915.376296269471	6604.3639319701
5	89630	28944.929295469177	6629.1684359697
5	89635	28946.647639506321	6627.7508043305
5	89640	28948.959982328854	6625.4159691663
5	89651	28953.700294951451	6626.8370124698
5	89685	28966.520980432959	6630.5398566403
5	89951	29047.114931266488	6702.9520805877
5	89992	29060.0739636649	6711.7985501854
5	90279	29150.45193288295	6801.7729499881
5	90315	29164.468255770459	6813.4491761021
5	90333	29168.155388456771	6814.8279550064
5	90339	29169.464163656145	6805.8295585008
5	90344	29170.131176942999	6804.7641159164
5	90357	29177.255774813788	6807.4647049471
5	90383	29189.211944620144	6817.557197798
5	90394	29192.452635532534	6813.4478588176
5	90399	29193.836882800173	6806.7004624073
5	90406	29197.786538113618	6807.1820207051
5	90414	29199.86594468871	6807.1981363719
5	90421	29203.391652642034	6805.9535080096
5	90432	29204.583771876801	6806.843029882
5	90437	29208.527276614618	6783.8314976836
5	90442	29209.514819016036	6773.8372636653
5	90451	29213.45098021305	6771.8739355149
5	90478	29220.908624464349	6769.903324971
5	90587	29250.174558119564	6798.2912615976
5	90592	29251.938807617325	6792.9083079054
5	90597	29254.528119327411	6790.0663490915
5	90602	29258.324528856444	6791.8359031639
5	90609	29267.12033829749	6783.7715603541
5	90777	29310.499457912461	6824.5047886596
5	90784	29313.134406618222	6794.2133417744
5	90795	29315.026566121656	6788.2892262823
5	90800	29315.047879444307	6786.9727271031
5	90809	29318.483011339719	6789.2209564021
5	90828	29324.732221492976	6795.2995347175
5	90835	29330.22735744613	6794.2744254328
5	90845	29337.992171136933	6801.3594635617
5	90880	29346.395505818313	6797.875891532
5	90887	29348.074388948035	6791.4791758215
5	90892	29349.445062240679	6791.4478457274
5	90897	29351.806532152364	6791.8115680941
5	90908	29356.943156302281	6778.7273051804
5	90915	29359.946149280928	6780.0597439342
5	90933	29375.231502442267	6788.908117181
5	90965	29384.458484429611	6793.7942556437
5	90970	29388.559832285101	6797.0257407373
5	90977	29390.088730722219	6795.4764271132
5	90992	29395.939025678374	6790.3117164537
5	90998	29399.92194302848	6794.0407853591
5	91009	29402.070853085224	6794.4941450132
5	91060	29408.756713859124	6799.7400045628
5	91073	29412.480035877828	6797.0109471521
5	91078	29414.05939741563	6796.3386674314
5	91086	29415.110097745343	6796.5899688026
5	91092	29415.904318531305	6783.0150668501
5	91099	29419.250168834272	6783.6733885455
5	91110	29423.037212095685	6784.198425731
5	91127	29429.09546600338	6782.4033921831
5	91134	29429.603543819295	6782.2415735164
5	91148	29431.376630572363	6780.3349891014
5	91155	29432.828458415295	6781.0883056012
5	91170	29439.243043310609	6785.8795057937
5	91200	29443.116681867416	6788.9132729013
5	91214	29453.738668272499	6798.9915351783
5	91335	29494.746016666351	6836.3932472605
5	91342	29495.495655786332	6833.8457801555
5	91358	29498.221774901343	6831.8889867413
5	91365	29499.557142261919	6825.5673030429
5	91376	29502.485864257446	6825.9354753567
5	91389	29504.736935594004	6826.0527632559
5	91397	29505.652227217343	6826.79351636
5	91420	29511.514407063336	6828.1231120575
5	91441	29521.068471822509	6834.3165689256
5	91465	29527.945681122681	6835.6580457873
5	91476	29534.369660410592	6840.4732913641
5	91506	29538.301633535404	6832.4615631909
5	91516	29543.913419782604	6836.4243888643
5	91533	29549.668533712525	6835.6197792702
5	91607	29565.874099865145	6850.5498724478
5	91613	29567.085851599815	6843.7359115484
5	91619	29568.489472749608	6844.5524683728
5	91625	29571.907075118289	6844.8042736126
5	91630	29572.445804366457	6844.8843585829
5	91635	29574.538992806623	6841.4124765387
5	91640	29575.387836390055	6839.7929304051
5	91647	29578.435663740934	6838.6597094464
5	91661	29582.458211723652	6834.3176215009
5	91675	29588.831728916632	6830.260046788
5	91736	29604.549419514087	6838.1737215109
5	91744	29607.717283041206	6836.2077644615
5	91761	29611.140563463573	6836.5809845278
5	91803	29618.857457405802	6837.7134949924
5	91820	29631.368728505392	6847.4648492245
5	91860	29643.214322077598	6855.5335707685
5	91881	29646.792998955259	6857.0299377395
5	91900	29651.357878295932	6853.4217768648
5	91959	29669.693179488327	6871.6036582977
5	91972	29672.632324170341	6872.1782074794
5	91977	29673.989649132766	6871.3978046765
5	91985	29679.752911030608	6865.2108936039
5	91998	29689.116130035959	6869.2065704403
5	92024	29693.664845860352	6861.2138147698
5	92082	29711.077837286093	6875.6434310555
5	92087	29711.753227654334	6867.9597198382
5	92102	29724.352024091184	6869.1341041559
5	92173	29741.300060120488	6882.5033384533
5	92181	29741.808243725972	6882.3518077324
5	92193	29743.902881247149	6873.6342551797
5	92200	29748.202352435703	6875.5982546095
5	92234	29760.531571485198	6877.6765297147
5	92246	29765.094306205582	6881.5106000337
5	92264	29775.523648586439	6891.5298275786
5	92335	29798.853566067723	6911.8186514457
5	92425	29816.686733578706	6924.6160429968
5	92430	29818.329932499177	6923.1446095796
5	92436	29821.878386411729	6915.2603018587
5	92444	29825.240168371347	6913.0341616824
5	92460	29828.880044404045	6915.785363437
5	92470	29830.407993852215	6909.1320036379
5	92475	29830.715569648254	6908.2487926896
5	92488	29834.752587432077	6908.1199903069
5	92501	29836.680240966612	6905.5372498023
5	92509	29841.652999628942	6906.5822006402
5	92530	29846.815837374396	6905.9963342796
5	92567	29860.722660207653	6910.6369923507
5	92573	29862.748782830484	6906.8446072391
5	92580	29866.093130138588	6899.4729083805
5	92596	29871.875031848259	6881.6784192063
5	92753	29920.141362130702	6928.3805415117
5	92763	29923.269791792728	6928.2088715522
5	92770	29929.139521841018	6924.8290519757
5	92775	29929.767462157431	6921.8190753655
5	92788	29933.677204104003	6915.0810652011
5	92868	29957.994617451004	6938.6836297808
5	92925	29975.226883266516	6949.5684585509

