version 2
run Third-n4-17-20191016-17:05:10-10920
attr configname Third-n4
attr datetime 20191016-17:05:10
attr experiment Third-n4
attr inifile omnetpp.ini
attr iterationvars ""
attr iterationvarsf ""
attr measurement ""
attr network org.omnetpp.queueing.Pizza
attr processid 10920
attr repetition 17
attr replication ""
attr resultdir results
attr runnumber 17
attr seedset 17
param **.PS.maxInventoriedPS 4
param **.U1.interArrivalTime exponential(4s)
param **.U2.interArrivalTime exponential(6s)
param **.PS.serviceTimeForInventoryU1 exponential(1.4s)
param **.PS.serviceTimeForInventoryU2 exponential(1.4s)
param **.PS.serviceTimeDirectU1 exponential(1.8s)
param **.PS.serviceTimeDirectU2 exponential(1.8s)
param **.PS.probabilityProducing 0.8
param **.CS.serviceTimeU1 exponential(2.3s)
param **.CS.serviceTimeU2 exponential(2.3s)

vector 0 Pizza.EntryQueueU1 queueLength:vector ETV
attr interpolationmode sample-hold
attr title "queue length, vector"
vector 1 Pizza.CS queueLength:vector ETV
attr interpolationmode sample-hold
attr title "queue length, vector"
vector 2 Pizza.EntryQueueU2 queueLength:vector ETV
attr interpolationmode sample-hold
attr title "queue length, vector"
vector 3 Pizza.sink lifeTime:vector ETV
attr interpolationmode none
attr title "lifetime of arrived jobs, vector"
attr unit s
vector 4 Pizza.sink lifeTimeU2:vector ETV
attr interpolationmode none
attr title "lifetime of arrived jobs, vector"
attr unit s
vector 5 Pizza.sink lifeTimeU1:vector ETV
attr interpolationmode none
attr title "lifetime of arrived jobs, vector"
attr unit s
0	0	0	0
0	5	1.396329674268	1
0	7	2.246730910068	2
0	15	8.107354914916	1
0	22	9.125971289312	0
0	33	11.034763139415	1
0	35	11.174425995395	2
0	43	14.397887362564	1
0	49	15.16301209714	0
0	73	19.566168863545	1
0	78	21.692715478634	0
0	89	23.94226296462	1
0	91	26.168529036673	0
0	98	27.299499513054	1
0	101	27.979674904408	0
0	107	27.991957772693	1
0	108	28.269702172472	0
0	114	29.001649127502	1
0	119	33.304631158111	0
0	131	35.7835685986	1
0	132	35.803380105838	0
0	163	44.531189375002	1
0	165	44.574202371134	2
0	167	44.846043096713	3
0	169	46.707986603369	4
0	172	49.139186614604	3
0	177	49.280080941449	2
0	182	49.480187191516	1
0	187	49.893974157249	0
0	193	50.171176338343	1
0	197	53.545569652584	0
0	235	70.760075465387	1
0	237	71.025180730441	2
0	242	72.70066667049	1
0	247	72.958814985861	0
0	264	86.802219418026	1
0	265	88.686645054956	0
0	278	90.695835009392	1
0	280	92.873948300431	0
0	297	95.964580927981	1
0	298	95.98570026187	0
0	313	99.622193804196	1
0	314	100.516362436006	0
0	320	101.00293285149	1
0	322	104.03050056149	0
0	328	104.502376756722	1
0	330	106.519301987859	0
0	363	125.004105899836	1
0	367	129.134574119896	2
0	368	129.850370854397	1
0	373	129.947558317692	0
0	412	139.717408598952	1
0	415	140.271363445179	0
0	426	142.059322905361	1
0	428	142.778415830365	2
0	431	144.106833633446	1
0	438	145.102791849336	0
0	467	158.515822725713	1
0	468	159.561769139141	0
0	477	161.871743041588	1
0	478	166.755832765327	0
0	486	168.268845307846	1
0	487	168.531320432693	0
0	507	173.200603287567	1
0	508	174.620305756276	0
0	514	176.221857818737	1
0	515	176.556119960026	0
0	521	176.809202097113	1
0	523	177.554286840065	0
0	547	181.90645204426	1
0	551	185.47499507201	2
0	554	186.213763730814	1
0	564	190.488690580384	2
0	566	191.82576447941	3
0	567	192.075431826298	2
0	574	193.860174357425	1
0	581	199.113448213612	0
0	605	209.13911796555	1
0	606	209.718888852049	0
0	640	217.156717548464	1
0	641	218.611548054816	0
0	647	218.766615756651	1
0	649	218.904080218201	2
0	650	220.703536165101	1
0	656	220.767584909721	2
0	666	226.638379979437	3
0	667	226.686345489592	2
0	675	232.565112392899	1
0	680	233.732136444779	0
0	686	233.967501974775	1
0	688	237.361241061397	2
0	690	238.247533133327	3
0	692	238.435661884492	4
0	694	240.279065645129	5
0	696	241.987244805149	6
0	697	244.374452604025	5
0	704	246.852750670507	4
0	709	247.500977454288	3
0	715	247.855427212099	4
0	716	247.855663721109	3
0	721	248.092329760892	2
0	727	250.167266245711	3
0	732	252.85395860568	2
0	739	254.391946898631	1
0	746	255.737491581298	2
0	747	255.814799136886	1
0	753	258.462418005771	0
0	759	259.500821081692	1
0	761	261.546825304647	0
0	767	265.532991994349	1
0	768	265.549967161951	0
0	782	267.567747930033	1
0	783	268.262808996769	0
0	795	272.533149631073	1
0	798	273.745211008332	2
0	799	274.558861465857	1
0	806	274.972921907402	0
0	827	278.20342080745	1
0	830	286.200591056626	0
0	845	291.715707557429	1
0	846	292.221784897944	0
0	855	295.119044389052	1
0	856	297.526433424846	0
0	862	297.795103245793	1
0	863	298.241607159411	0
0	870	300.174151717918	1
0	871	300.676576706378	0
0	881	303.368746947272	1
0	885	307.706947058422	2
0	886	309.257691037214	1
0	892	309.435276497657	2
0	894	311.402907884986	3
0	895	312.072939840042	2
0	900	312.927702361726	1
0	910	315.757044837258	2
0	919	320.028120374095	1
0	928	324.252353021844	2
0	929	325.410417779878	1
0	936	325.867560754548	2
0	937	326.770555984794	1
0	943	327.303912431308	0
0	955	330.484461050642	1
0	956	331.015127263569	0
0	964	333.664241348386	1
0	966	333.868625252245	2
0	967	333.989597466776	1
0	972	334.429412852007	0
0	990	340.063095476521	1
0	991	344.015108148315	0
0	997	344.553854565487	1
0	998	344.729371147996	0
0	1014	346.98833694726	1
0	1017	348.11950702515	0
0	1038	355.756680825062	1
0	1041	360.103823219537	0
0	1066	364.209672650693	1
0	1067	366.073195156019	0
0	1078	366.928359745043	1
0	1079	367.304132991959	0
0	1085	367.77033742105	1
0	1086	367.828350509128	0
0	1097	369.787775941878	1
0	1103	372.60906341677	0
0	1116	373.976476750387	1
0	1118	375.584083869313	0
0	1153	385.043500061795	1
0	1159	387.018301975084	2
0	1160	387.585549173407	1
0	1166	388.393662058695	0
0	1173	389.844411328408	1
0	1176	392.314288084509	0
0	1201	394.750555634408	1
0	1203	395.075685864424	2
0	1206	396.924485672015	1
0	1215	399.928594262054	2
0	1219	402.054356576343	3
0	1220	403.639288193468	2
0	1226	408.883499020247	1
0	1231	408.888717958484	0
0	1238	409.442995341824	1
0	1240	409.980771931528	0
0	1247	410.939421870075	1
0	1248	412.825289515456	0
0	1255	413.320383824085	1
0	1257	413.529590485112	2
0	1261	416.215247381279	3
0	1263	416.48639844228	2
0	1271	420.875548733019	1
0	1280	422.266734861843	2
0	1282	422.301770542967	3
0	1283	425.691341153567	2
0	1289	426.432734905388	1
0	1296	430.311850476544	0
0	1320	435.984270995843	1
0	1323	442.467162698543	0
0	1344	450.231269956532	1
0	1345	451.868326163752	0
0	1386	468.1017601247	1
0	1388	468.204823536349	2
0	1390	470.778608257399	3
0	1392	473.42326213812	4
0	1395	475.950757288589	3
0	1400	476.084557264913	2
0	1406	477.533694535592	1
0	1412	479.267460155726	0
0	1427	486.050825288823	1
0	1430	489.510431969662	0
0	1456	495.55521177904	1
0	1460	498.916249380945	2
0	1466	506.467769455977	3
0	1469	507.582544897571	2
0	1477	510.860406776289	3
0	1479	510.914337459559	4
0	1481	510.922837890616	5
0	1484	512.181580191846	4
0	1492	513.97127180981	3
0	1498	516.172575476882	2
0	1503	516.44772236955	1
0	1510	517.731768746685	2
0	1512	517.913419585731	3
0	1515	518.430849508339	4
0	1518	519.921554292605	3
0	1523	521.042549499641	2
0	1531	522.998960199628	3
0	1535	526.473548390162	4
0	1536	526.838109627868	3
0	1544	530.551686005072	2
0	1554	534.024745478262	1
0	1560	534.152860184585	2
0	1562	534.982542284804	3
0	1563	536.359249227288	2
0	1569	536.603316998356	3
0	1570	536.693819385716	2
0	1577	539.209379373748	1
0	1583	539.385034630898	2
0	1584	539.458147179238	1
0	1592	541.125345765973	2
0	1595	542.017726881056	3
0	1597	543.010246474216	4
0	1599	545.269270863867	3
0	1604	545.311458044481	2
0	1611	545.716828838581	3
0	1615	547.269463839984	4
0	1616	547.58408222429	3
0	1624	550.551998136356	4
0	1626	550.69952160924	5
0	1627	551.641880096479	4
0	1636	552.866765126501	5
0	1637	553.221195011877	4
0	1643	553.430390805791	3
0	1649	553.904114474515	4
0	1653	554.814535686855	5
0	1656	555.587679296836	4
0	1664	557.060247414058	3
0	1669	557.975269962368	2
0	1674	558.884502648053	1
0	1679	558.956282748383	0
0	1705	562.296059171855	1
0	1708	563.35633226882	2
0	1713	568.004372718057	1
0	1720	569.714660029814	2
0	1721	569.750115193631	1
0	1727	570.248231241026	2
0	1729	571.429918945588	3
0	1730	572.425589254085	2
0	1736	573.545861162031	1
0	1744	575.927132656259	2
0	1745	578.586886967013	1
0	1753	579.560960478438	0
0	1769	582.959717818432	1
0	1772	585.288278450654	2
0	1773	585.46545907744	1
0	1778	585.581952517332	0
0	1784	586.361481827898	1
0	1786	587.688894340634	0
0	1800	595.389718064073	1
0	1802	595.629363368093	2
0	1804	595.65686989087	3
0	1807	596.171980063986	2
0	1812	596.498193719241	1
0	1817	596.508965225642	0
0	1835	603.086492883104	1
0	1839	605.640119280635	0
0	1869	616.07236362594	1
0	1870	616.209418905459	0
0	1879	618.475420000618	1
0	1884	620.332937009127	2
0	1886	622.44410655998	3
0	1887	622.721049015819	2
0	1893	624.713173983989	1
0	1898	624.831030148218	0
0	1919	633.227096861208	1
0	1922	635.842714030208	0
0	1928	636.034202792567	1
0	1929	636.199960280401	0
0	1941	639.42402856196	1
0	1943	642.223076333279	0
0	1958	643.375746002123	1
0	1962	644.925515677443	0
0	1982	648.179726636199	1
0	1985	648.89536207169	0
0	1996	654.977272102443	1
0	1998	658.189341897357	0
0	2004	659.916646843307	1
0	2006	660.464790822616	0
0	2012	661.308984005904	1
0	2013	662.233004680325	0
0	2030	664.693049975257	1
0	2033	665.629521302259	2
0	2036	666.536038086182	1
0	2042	667.566817759042	0
0	2056	672.530723307947	1
0	2058	673.78486092902	0
0	2080	679.135528093658	1
0	2083	679.503744072412	0
0	2089	680.255616029239	1
0	2093	683.25737710315	0
0	2104	688.218038512665	1
0	2111	695.917696550497	0
0	2143	705.848713270539	1
0	2144	706.330673284815	0
0	2151	708.115298983171	1
0	2155	711.123941811651	2
0	2157	712.147914386587	3
0	2159	712.364481587948	4
0	2160	714.669185858268	3
0	2168	716.40048065279	2
0	2178	718.199138440753	3
0	2186	720.378325856856	2
0	2192	722.246939189953	1
0	2197	722.287257811543	0
0	2207	724.236456323537	1
0	2213	726.835109979718	2
0	2219	729.950994142563	1
0	2224	730.201339934825	0
0	2230	730.388982053237	1
0	2231	730.400207022138	0
0	2242	732.38111886071	1
0	2244	732.778265314732	2
0	2251	740.651814065988	1
0	2257	742.350150977672	2
0	2262	744.656897255193	3
0	2264	746.317663753243	4
0	2265	746.757250426373	3
0	2270	746.846963457771	2
0	2276	746.992100783433	3
0	2277	747.113963615835	2
0	2284	748.179133985975	1
0	2294	750.649410302526	2
0	2295	750.673671822919	1
0	2301	751.185954679494	2
0	2305	754.703912394119	3
0	2306	754.851834978862	2
0	2317	757.505204901911	1
0	2323	757.807983099163	2
0	2326	758.165816601034	1
0	2335	760.906103406523	0
0	2341	761.92373974281	1
0	2346	764.118847852766	2
0	2347	764.952291347296	1
0	2352	766.29689094196	0
0	2374	771.291768610113	1
0	2376	772.472450254818	2
0	2377	772.675356892871	1
0	2383	772.748796765625	2
0	2384	773.682587706482	1
0	2395	775.661886135989	0
0	2404	777.102334486224	1
0	2408	777.919892230705	2
0	2409	778.046509027565	1
0	2418	779.758210146161	0
0	2434	781.750115332813	1
0	2442	785.69019517288	2
0	2445	786.372809157635	1
0	2451	788.508143248209	0
0	2460	791.8337457405	1
0	2463	795.428019207209	0
0	2472	795.853985061657	1
0	2478	799.711889187562	2
0	2480	800.697814738825	1
0	2486	800.883686020408	0
0	2496	805.797593747903	1
0	2499	812.662029785249	0
0	2506	816.278153427218	1
0	2507	816.882678479255	0
0	2514	818.11467982502	1
0	2515	818.782315183108	0
0	2522	819.51254538738	1
0	2523	823.982078012556	0
0	2529	824.373975150575	1
0	2532	825.061209447251	2
0	2535	827.859922336529	3
0	2536	828.525030195671	2
0	2543	830.689662215103	3
0	2544	830.810816294001	2
0	2550	832.209793268902	1
0	2555	834.16960367363	0
0	2567	835.762656265602	1
0	2568	836.166520559652	0
0	2574	837.303902046468	1
0	2575	839.168431813344	0
0	2596	845.153335918777	1
0	2600	846.78588353681	2
0	2603	848.879390832091	1
0	2609	849.234607483219	2
0	2612	850.814863115063	3
0	2615	851.399350137819	2
0	2620	851.403910088513	1
0	2626	852.344960848366	2
0	2633	856.174511949174	3
0	2637	857.021252980944	2
0	2653	865.444716019334	3
0	2659	872.826133399336	4
0	2661	874.03934949975	5
0	2663	877.559361320534	6
0	2664	878.515947300331	5
0	2669	878.522704288218	4
0	2675	878.924442432041	5
0	2676	880.60248239113	4
0	2687	885.529993869703	3
0	2695	887.903042436282	2
0	2701	888.556739116455	1
0	2708	889.934171716558	2
0	2709	891.169860625905	1
0	2717	891.967031231961	2
0	2723	894.21165290858	1
0	2728	894.278608504074	0
0	2734	896.107839817691	1
0	2735	897.715150938857	0
0	2747	898.665783806425	1
0	2749	898.866378846969	2
0	2751	900.130571237062	1
0	2760	901.875966920679	0
0	2777	906.974398100896	1
0	2779	907.651086895176	2
0	2780	908.466037090149	1
0	2786	909.422853373189	0
0	2815	913.632631065645	1
0	2817	913.82916260886	2
0	2818	914.279504230744	1
0	2824	915.983167430283	0
0	2832	917.175275593931	1
0	2834	917.212404544296	2
0	2839	919.995571468724	1
0	2844	920.664065714913	0
0	2896	940.191345261014	1
0	2897	942.104795912308	0
0	2904	945.057324834373	1
0	2905	949.334136462857	0
0	2914	949.878813806119	1
0	2916	950.364684714992	2
0	2920	957.377234118225	1
0	2931	961.329702096621	0
0	2937	961.578100103464	1
0	2940	962.713361680435	2
0	2944	964.081030035785	3
0	2945	964.684366538092	2
0	2951	965.226136644245	1
0	2956	965.715012240148	0
0	2990	972.076173818498	1
0	2994	972.844249825632	2
0	2995	972.859001647379	1
0	3000	974.732279410866	0
0	3006	974.91223652095	1
0	3008	976.094696245638	0
0	3026	980.140956042042	1
0	3027	980.296783846106	0
0	3038	983.114403429813	1
0	3041	983.522998905571	0
0	3049	984.831999058312	1
0	3052	985.575576751903	2
0	3055	988.256033896229	1
0	3062	990.350467884396	0
0	3068	990.959888813661	1
0	3070	991.95211155927	2
0	3071	992.765688547818	1
0	3080	993.430115459216	0
0	3108	1002.625297290624	1
0	3111	1004.90729966914	0
0	3130	1007.655351737768	1
0	3133	1009.173467988102	0
0	3154	1016.617113052279	1
0	3155	1018.652048353412	0
0	3168	1025.215020446537	1
0	3173	1027.972885525574	0
0	3193	1035.971859806213	1
0	3194	1037.74020816267	0
0	3205	1040.68762451728	1
0	3209	1042.677640590656	0
0	3217	1043.724595411677	1
0	3222	1047.090808037012	0
0	3230	1056.486835504258	1
0	3233	1061.26055060178	0
0	3239	1061.320979390492	1
0	3245	1066.737832255329	2
0	3247	1067.949744505279	3
0	3248	1068.00547062322	2
0	3253	1068.685215304761	1
0	3259	1069.81618158136	2
0	3260	1070.754274236628	1
0	3267	1070.911715554331	0
0	3278	1071.643846088322	1
0	3279	1071.817180702938	0
0	3292	1074.048458771741	1
0	3293	1074.319437741974	0
0	3301	1075.817678543668	1
0	3307	1078.347571369424	2
0	3312	1082.242332458804	1
0	3318	1082.500582650999	2
0	3319	1082.826711445359	1
0	3324	1082.909525960049	0
0	3330	1083.294064276341	1
0	3331	1084.006310756033	0
0	3372	1105.365792190469	1
0	3376	1108.234530655221	2
0	3377	1109.202791506657	1
0	3385	1113.203182932293	2
0	3386	1113.678392689907	1
0	3393	1114.455157374497	0
0	3420	1129.078266588225	1
0	3423	1130.80738115515	0
0	3436	1139.878548470968	1
0	3438	1139.956345410351	2
0	3439	1140.916625110465	1
0	3445	1142.670904284813	0
0	3451	1143.771483385646	1
0	3455	1146.234067256458	2
0	3457	1146.916785093518	1
0	3465	1150.03780339845	0
0	3472	1150.316273782603	1
0	3473	1150.432277789146	0
0	3479	1150.817263585637	1
0	3480	1150.83273136338	0
0	3497	1153.552194305882	1
0	3499	1153.898814737453	2
0	3500	1156.174025155405	1
0	3505	1156.301685390164	0
0	3525	1164.192199693876	1
0	3528	1164.4324154531	0
0	3543	1167.937487918254	1
0	3549	1174.19763896378	0
0	3557	1177.630008794643	1
0	3558	1179.388242489007	0
0	3564	1180.164999198302	1
0	3567	1181.888680516297	0
0	3573	1182.941718480675	1
0	3577	1188.472326247145	0
0	3621	1199.6190100904	1
0	3623	1199.963693909038	2
0	3630	1203.345453365735	3
0	3631	1206.245061710038	2
0	3637	1206.322749873652	3
0	3638	1206.790367728732	2
0	3645	1209.805345445968	1
0	3651	1209.878476492774	2
0	3653	1210.814952978657	1
0	3663	1212.185434897412	0
0	3669	1213.149132983226	1
0	3670	1213.187597583316	0
0	3685	1215.94432540213	1
0	3688	1216.443626516505	0
0	3696	1217.092156844042	1
0	3701	1217.916993840542	2
0	3707	1221.335433516258	1
0	3714	1222.360110710126	0
0	3728	1230.908499436817	1
0	3731	1231.594628106693	0
0	3745	1233.890539334409	1
0	3747	1234.041553925797	2
0	3751	1234.433693697751	3
0	3753	1235.005795989421	4
0	3755	1236.657477139787	3
0	3762	1239.873809125805	2
0	3768	1240.031927481936	3
0	3770	1241.501026434143	4
0	3772	1242.235972561076	3
0	3782	1244.702590356643	2
0	3787	1245.024655078063	1
0	3792	1245.280716072551	0
0	3808	1247.261287803735	1
0	3810	1247.569135963804	2
0	3811	1249.250095636281	1
0	3817	1249.270858442529	2
0	3819	1249.851708236928	3
0	3822	1251.575507089661	4
0	3824	1251.859983817917	5
0	3825	1253.316745272108	4
0	3831	1254.690102508974	3
0	3839	1257.771807888188	4
0	3840	1257.861423612874	3
0	3847	1259.600229180774	4
0	3849	1260.952608816148	3
0	3855	1268.371586164454	2
0	3860	1268.388048871689	1
0	3867	1269.530783591555	0
0	3889	1274.133413605262	1
0	3890	1277.237645285233	0
0	3903	1280.626859781779	1
0	3904	1281.609688526447	0
0	3910	1281.684996308709	1
0	3912	1282.185467443196	2
0	3914	1285.453705432509	1
0	3920	1286.565228625856	2
0	3921	1286.577170181954	1
0	3929	1286.867732189353	0
0	3946	1291.419376054336	1
0	3948	1292.922160868159	2
0	3949	1292.930114624594	1
0	3954	1294.514896656727	0
0	3969	1299.085661637949	1
0	3970	1299.942926033333	0
0	3976	1300.589868649288	1
0	3979	1303.384398476484	2
0	3980	1304.411514118708	1
0	3986	1306.376285295089	0
0	4010	1313.456713209	1
0	4011	1314.294548965682	0
0	4040	1321.569296563462	1
0	4041	1321.696120354274	0
0	4051	1324.466258968056	1
0	4052	1324.609756763293	0
0	4060	1326.860167509886	1
0	4061	1326.890452933338	0
0	4067	1326.915374313621	1
0	4069	1327.159735569984	2
0	4070	1327.371820503141	1
0	4075	1327.545321477618	0
0	4083	1330.300473834509	1
0	4087	1337.640885781877	0
0	4094	1338.874496573031	1
0	4095	1340.387141022712	0
0	4109	1343.212709695846	1
0	4110	1344.878656060083	0
0	4134	1353.553510163728	1
0	4137	1356.952683468935	0
0	4144	1359.899653757676	1
0	4147	1360.398049543677	0
0	4157	1363.005417448273	1
0	4161	1366.860547851974	2
0	4164	1367.918118466373	1
0	4170	1368.870563851938	2
0	4172	1369.205835633725	1
0	4180	1371.726108139043	0
0	4189	1373.237574792569	1
0	4190	1373.269253023016	0
0	4196	1373.301403178486	1
0	4198	1373.320039373989	2
0	4199	1373.58065755273	1
0	4207	1374.672405682873	0
0	4224	1376.446794917642	1
0	4229	1379.42600403093	0
0	4235	1380.300700314814	1
0	4236	1380.526640400481	0
0	4250	1382.842795980032	1
0	4252	1382.941517184594	2
0	4254	1389.869487077288	3
0	4256	1389.92543452004	4
0	4257	1391.827322437556	3
0	4262	1392.040341318075	2
0	4269	1395.295330447748	1
0	4274	1395.461391103016	0
0	4280	1395.563102902741	1
0	4284	1398.223338094882	0
0	4309	1405.570387981127	1
0	4310	1405.859288453903	0
0	4318	1406.400198384124	1
0	4320	1407.095156903532	2
0	4321	1407.109647949982	1
0	4329	1407.885104377356	0
0	4340	1409.427969664338	1
0	4345	1411.036757462321	0
0	4359	1412.696452101077	1
0	4360	1412.712081870908	0
0	4371	1413.248045222293	1
0	4373	1413.669054463137	2
0	4374	1413.692246677957	1
0	4385	1416.608233886041	0
0	4393	1419.829035355091	1
0	4394	1420.756205683573	0
0	4410	1422.319053036112	1
0	4411	1422.350752491023	0
0	4420	1425.404734768612	1
0	4426	1429.891943410761	0
0	4432	1430.630380243901	1
0	4436	1431.445679792748	0
0	4459	1438.767452118956	1
0	4461	1441.639031504232	2
0	4462	1442.286528163858	1
0	4467	1445.812300000814	0
0	4490	1453.034655036508	1
0	4492	1453.166467709628	2
0	4494	1454.143871195188	3
0	4495	1456.131437533566	2
0	4500	1456.760271743091	1
0	4507	1457.57600082716	2
0	4508	1457.926469265907	1
0	4514	1458.286629397405	2
0	4516	1460.257870673548	3
0	4517	1461.217243082753	2
0	4523	1461.954136386404	1
0	4530	1462.497914647446	2
0	4533	1462.802177287432	3
0	4536	1463.603668275077	2
0	4542	1464.410962875487	3
0	4544	1464.611177134817	4
0	4547	1467.508942137245	3
0	4554	1468.803714293539	2
0	4559	1469.066990013433	1
0	4564	1471.997976194984	0
0	4605	1484.105368311166	1
0	4607	1485.478051885792	2
0	4613	1487.880292887765	1
0	4618	1487.907511845561	0
0	4624	1491.781148069766	1
0	4625	1491.790641662616	0
0	4634	1493.31204145396	1
0	4638	1494.838209307071	2
0	4641	1498.012879698504	1
0	4648	1498.716590513145	2
0	4651	1499.619037045248	3
0	4652	1500.805060303438	2
0	4661	1503.888372575457	3
0	4663	1506.595824513705	4
0	4664	1506.783556797427	3
0	4671	1508.120483499033	4
0	4675	1509.444814512685	3
0	4681	1509.703012407416	2
0	4688	1510.219480473285	1
0	4696	1511.360803046451	2
0	4698	1512.188550696953	3
0	4701	1514.894667932061	4
0	4702	1515.092527144407	3
0	4707	1515.131755861325	2
0	4716	1517.065376163989	1
0	4721	1517.219943166745	0
0	4741	1523.179675389255	1
0	4742	1523.516289189495	0
0	4751	1530.008038635998	1
0	4755	1532.074991374758	2
0	4763	1534.448197572173	3
0	4765	1535.846632054261	4
0	4766	1538.546240310948	3
0	4772	1540.231584783279	2
0	4779	1540.398077713804	1
0	4786	1540.609085861754	2
0	4790	1541.954714104901	3
0	4793	1548.397919714078	2
0	4800	1549.873541074034	3
0	4802	1550.026799457197	4
0	4803	1551.878909965964	3
0	4808	1552.321137157598	2
0	4814	1553.086006660264	1
0	4824	1555.783107920895	0
0	4838	1560.803505694592	1
0	4839	1560.855316604319	0
0	4851	1561.563466500063	1
0	4852	1561.613972349295	0
0	4886	1571.540477443692	1
0	4888	1575.682375259076	2
0	4889	1576.210123361118	1
0	4894	1576.401321411639	0
0	4907	1579.554179634403	1
0	4911	1585.413230764292	2
0	4915	1587.547591825061	3
0	4918	1590.94078715821	2
0	4923	1591.752142466384	1
0	4934	1593.298085527462	2
0	4936	1593.924466896047	1
0	4943	1595.899309555812	0
0	4954	1597.538741791484	1
0	4956	1598.711025306418	2
0	4961	1600.811450724506	3
0	4962	1602.587464823321	2
0	4968	1603.621182600988	1
0	4975	1606.273658474437	0
0	4991	1610.321628628259	1
0	4996	1613.864082875045	0
0	5010	1618.487481022064	1
0	5012	1619.386690133502	2
0	5013	1619.600429772409	1
0	5019	1619.925009993765	2
0	5025	1621.587669783179	3
0	5028	1622.841700545986	4
0	5030	1623.496453101878	5
0	5031	1623.766261466236	4
0	5037	1624.510517224898	3
0	5042	1624.54341894162	2
0	5048	1624.855525215564	1
0	5055	1627.050675160461	0
0	5080	1631.51755243442	1
0	5083	1634.915651907499	0
0	5090	1638.769558392138	1
0	5092	1641.099626503651	2
0	5094	1641.652456494073	3
0	5095	1643.894219241188	2
0	5101	1648.803019923002	1
0	5107	1651.91695434161	0
0	5113	1652.018256043676	1
0	5115	1654.285916383054	0
0	5130	1656.844948869094	1
0	5132	1659.091405200288	2
0	5134	1660.358698089714	3
0	5136	1661.591754667389	4
0	5140	1664.572287037785	5
0	5143	1668.61911363871	4
0	5149	1669.301601483879	3
0	5154	1669.482067840234	2
0	5163	1671.022116161585	3
0	5164	1671.800673747648	2
0	5169	1672.550918538706	1
0	5175	1673.867565169997	2
0	5177	1675.237385196928	1
0	5183	1675.636001709536	0
0	5189	1675.800031471975	1
0	5190	1676.127891438981	0
0	5198	1684.894993103137	1
0	5200	1685.879969808921	2
0	5201	1689.898034024502	1
0	5207	1690.588055626736	0
0	5220	1691.60597569194	1
0	5222	1692.688316288891	0
0	5228	1693.478036461306	1
0	5230	1694.498553650614	0
0	5261	1701.348250912343	1
0	5267	1702.757852836433	2
0	5270	1706.598615161222	1
0	5278	1707.241737953836	2
0	5280	1711.348819229443	3
0	5282	1711.737572340929	4
0	5283	1711.920118412198	3
0	5288	1713.971239341775	2
0	5294	1714.221560271702	3
0	5299	1721.927558256457	2
0	5305	1723.835696147371	1
0	5315	1727.160081935627	2
0	5317	1731.749699994844	1
0	5326	1732.569415233772	2
0	5328	1733.959300682233	3
0	5331	1736.367532398829	2
0	5336	1737.224670012899	1
0	5342	1740.160487613541	0
0	5359	1746.800336530742	1
0	5360	1747.867768432096	0
0	5369	1750.395589414397	1
0	5371	1751.276918599279	2
0	5373	1752.811372015695	3
0	5374	1754.576169318484	2
0	5379	1756.01239830676	1
0	5386	1758.81726100073	2
0	5387	1759.033733805416	1
0	5393	1759.82347079116	2
0	5395	1760.343653591771	1
0	5401	1762.838811913948	0
0	5415	1765.187015493771	1
0	5418	1766.568122861619	0
0	5431	1772.151727593755	1
0	5433	1772.155349339618	2
0	5434	1772.446756456479	1
0	5441	1775.509421826978	2
0	5442	1777.135712171643	1
0	5452	1779.115897431817	0
0	5459	1781.960686377166	1
0	5461	1783.719078069132	2
0	5463	1784.430511826711	3
0	5464	1786.376425874467	2
0	5471	1788.145872101747	3
0	5472	1788.357731098099	2
0	5477	1788.914058644247	1
0	5484	1789.538561124377	0
0	5500	1793.223937928917	1
0	5501	1793.454080263767	0
0	5514	1794.801317859084	1
0	5517	1795.423388295528	2
0	5518	1795.621983215325	1
0	5523	1795.662145314533	0
0	5541	1797.346741713909	1
0	5545	1799.981253285954	0
0	5554	1800.510901527984	1
0	5558	1802.261356610844	2
0	5561	1802.389935825989	1
0	5567	1803.195503619435	2
0	5569	1804.623201382107	1
0	5574	1804.876174818616	0
0	5604	1815.340400918988	1
0	5607	1817.503150389672	0
0	5617	1821.75216512631	1
0	5619	1823.8072281111	2
0	5621	1825.499600140033	3
0	5625	1826.668373909508	4
0	5629	1828.424962023655	5
0	5630	1829.100333232634	4
0	5637	1830.70493179024	3
0	5645	1833.549616889159	2
0	5651	1834.828536837873	3
0	5653	1834.92540726875	4
0	5655	1835.367340067706	5
0	5656	1835.743915872748	4
0	5661	1835.95414881276	3
0	5671	1838.955147443564	4
0	5673	1839.339347415195	3
0	5680	1841.585483560802	4
0	5682	1841.656635621744	5
0	5683	1842.513199788152	4
0	5690	1843.527407661244	5
0	5698	1848.045065453812	4
0	5704	1848.749165261969	3
0	5710	1848.866636626049	4
0	5716	1853.360001041941	3
0	5723	1858.168893647816	4
0	5727	1863.848720766022	5
0	5729	1864.491378912211	6
0	5733	1867.50618472598	7
0	5734	1868.255617738927	6
0	5742	1870.143484402893	7
0	5743	1870.716255035416	6
0	5750	1873.979532233559	7
0	5751	1875.408395529776	6
0	5756	1875.579152170631	5
0	5762	1875.947425907321	4
0	5768	1875.964729272609	5
0	5773	1878.526418001224	6
0	5774	1878.584045215131	5
0	5780	1879.096871563912	4
0	5785	1880.548021805087	3
0	5795	1883.0594274077	4
0	5796	1883.225198155869	3
0	5801	1883.905976286302	2
0	5807	1884.226492488181	3
0	5810	1885.093240794987	2
0	5815	1886.329779661312	1
0	5819	1886.732994109263	2
0	5822	1887.534630012169	1
0	5826	1889.093828862943	2
0	5834	1893.698929862893	1
0	5842	1896.366623985598	2
0	5843	1896.383604481259	1
0	5850	1897.462474474777	0
0	5856	1898.786995346261	1
0	5859	1900.524552793023	2
0	5860	1900.728599775408	1
0	5867	1901.879539085444	0
0	5883	1905.1135015464	1
0	5885	1905.454224220602	2
0	5887	1906.997903749935	1
0	5892	1907.922105736859	0
0	5906	1910.219020143679	1
0	5910	1912.821204335859	0
0	5919	1915.864025789861	1
0	5923	1917.146302848036	2
0	5926	1919.428338501031	1
0	5931	1920.217664799049	0
0	5941	1924.387915469489	1
0	5943	1926.020987653082	0
0	5952	1929.638203342981	1
0	5953	1930.339066556895	0
0	5978	1933.927225343217	1
0	5982	1936.530055320524	2
0	5983	1939.183397367462	1
0	5988	1939.710199740602	0
0	5998	1940.275058977842	1
0	6000	1941.004390724972	2
0	6007	1945.045298894205	1
0	6014	1945.464706692821	2
0	6016	1946.710540804227	3
0	6017	1946.817200394007	2
0	6023	1947.184827584611	1
0	6030	1947.821302291095	0
0	6042	1949.785849824716	1
0	6044	1949.921014867498	2
0	6045	1949.978030602876	1
0	6051	1950.454920660892	0
0	6064	1951.254679945218	1
0	6065	1952.569147606872	0
0	6100	1963.187516452601	1
0	6109	1967.188396759749	2
0	6110	1967.65021582593	1
0	6121	1970.399441367276	0
0	6129	1971.426426717928	1
0	6132	1972.530737508081	2
0	6137	1976.633047839507	1
0	6143	1977.046588706604	0
0	6158	1982.260165226642	1
0	6160	1982.643081862065	2
0	6163	1983.605541221855	1
0	6168	1983.880363880081	0
0	6176	1985.491320851133	1
0	6179	1986.012840768737	0
0	6188	1988.049306348235	1
0	6192	1990.188174198798	2
0	6196	1991.881416037061	1
0	6203	1994.649730579266	0
0	6215	1997.251430467094	1
0	6216	1998.911750331201	0
0	6229	2002.469891828777	1
0	6233	2004.187024155427	0
0	6254	2010.818390082743	1
0	6255	2011.070248136821	0
0	6279	2014.216768619164	1
0	6284	2016.768446716735	0
0	6303	2022.120607237143	1
0	6304	2025.015635128962	0
0	6310	2025.45311084907	1
0	6315	2030.8689031799	2
0	6317	2031.081753118766	3
0	6320	2031.240145239677	4
0	6321	2031.308779006751	3
0	6328	2035.639481562086	2
0	6334	2036.912440620948	1
0	6340	2037.352534049045	0
0	6378	2050.877913372068	1
0	6380	2052.042457286703	2
0	6382	2052.505357418582	3
0	6385	2057.102387803	2
0	6391	2057.664046267628	3
0	6395	2059.957383581058	2
0	6404	2061.011310799861	3
0	6405	2062.825244485302	2
0	6411	2062.99864333912	3
0	6414	2063.731852186084	4
0	6415	2063.957839448904	3
0	6420	2064.066020163652	2
0	6429	2066.976010582968	1
0	6434	2068.522127279542	0
0	6450	2071.393688291873	1
0	6452	2073.848476147076	2
0	6455	2077.492717614847	1
0	6460	2078.05748392976	0
0	6487	2086.547152837003	1
0	6488	2086.653502024522	0
0	6520	2096.026392366691	1
0	6522	2096.080313660359	2
0	6523	2096.436179963947	1
0	6529	2097.527426848627	2
0	6532	2101.883962756425	1
0	6537	2102.661713613334	0
0	6576	2112.910939980034	1
0	6577	2114.363392208165	0
0	6588	2116.607705556175	1
0	6592	2118.193402566355	0
0	6617	2129.699942619451	1
0	6620	2130.25225783896	0
0	6628	2131.405563635174	1
0	6629	2131.970865422414	0
0	6637	2133.655716143958	1
0	6638	2133.949214488832	0
0	6650	2136.184390870095	1
0	6652	2137.88828962754	2
0	6653	2138.272451754871	1
0	6661	2140.568458597861	0
0	6675	2142.786725085816	1
0	6678	2143.807819589018	0
0	6684	2144.282126095131	1
0	6688	2145.745186514326	0
0	6713	2155.696607055146	1
0	6716	2156.895590205595	0
0	6725	2163.168204157445	1
0	6727	2163.98627764766	2
0	6729	2164.456797691598	3
0	6731	2166.246670117481	4
0	6733	2167.38066712718	5
0	6734	2168.269648783556	4
0	6740	2168.347164989883	5
0	6743	2169.154647217045	4
0	6754	2171.952945859554	3
0	6762	2172.410161175602	2
0	6768	2172.644217126841	3
0	6772	2173.512152863673	4
0	6775	2173.924196854911	5
0	6776	2174.141791442102	4
0	6782	2176.887788898282	5
0	6784	2178.77883384814	4
0	6792	2180.766067586545	5
0	6796	2183.893398182799	4
0	6802	2184.335508092746	5
0	6808	2191.08577203868	4
0	6813	2193.924523601433	3
0	6818	2193.971849002762	2
0	6825	2195.105970922479	3
0	6826	2197.320783355554	2
0	6835	2198.649466933436	1
0	6841	2199.033497179875	0
0	6861	2206.965960015754	1
0	6863	2207.680182334546	2
0	6866	2209.994864083502	1
0	6871	2210.241217322659	0
0	6905	2220.301738332184	1
0	6907	2220.749876779287	2
0	6908	2225.605723409345	1
0	6913	2225.951478019241	0
0	6921	2227.364089074746	1
0	6923	2228.284797893076	2
0	6928	2231.801411381939	1
0	6933	2233.835159674114	0
0	6945	2235.732851610145	1
0	6948	2237.384922774723	2
0	6951	2238.161246039976	3
0	6954	2238.685737485197	4
0	6955	2239.24227389907	3
0	6960	2239.97230917538	2
0	6970	2245.105185369336	3
0	6971	2245.242006015736	2
0	6978	2245.787427314354	3
0	6979	2247.131110130371	2
0	6989	2250.04988332828	1
0	6997	2254.194795443624	0
0	7009	2256.66333684384	1
0	7010	2257.238443195847	0
0	7016	2257.387224877391	1
0	7017	2258.03138567822	0
0	7038	2265.381103708769	1
0	7043	2269.562294288579	0
0	7052	2270.734186660065	1
0	7054	2271.57202213622	2
0	7058	2272.645236277529	3
0	7060	2275.000929242213	2
0	7065	2275.914485091888	1
0	7076	2282.890631113501	0
0	7096	2288.035701042451	1
0	7103	2294.643044706547	0
0	7116	2297.359028846216	1
0	7121	2301.622810630846	0
0	7128	2303.801399272149	1
0	7130	2304.397519608955	0
0	7137	2306.358433720874	1
0	7139	2307.033826555234	0
0	7159	2311.875868970531	1
0	7162	2317.180114418448	0
0	7174	2319.509509269634	1
0	7175	2321.219912281562	0
0	7205	2333.93854312241	1
0	7206	2335.086283197311	0
0	7233	2339.724600831604	1
0	7235	2342.102865738831	0
0	7247	2344.847664189167	1
0	7248	2345.840295349261	0
0	7265	2349.125026466603	1
0	7267	2349.946348205643	2
0	7268	2350.932424009369	1
0	7276	2354.237092066294	0
0	7293	2356.926656194809	1
0	7295	2359.905165892215	2
0	7296	2360.699318027608	1
0	7301	2362.607766126223	0
0	7316	2364.827971021103	1
0	7317	2365.104773472944	0
0	7324	2365.803221471193	1
0	7325	2366.141780707737	0
0	7338	2369.282441921403	1
0	7341	2370.390638317562	2
0	7342	2370.770536965416	1
0	7348	2372.042851383678	2
0	7350	2373.29924965023	1
0	7357	2374.860158176416	2
0	7359	2375.028316612026	3
0	7363	2375.640517535177	4
0	7365	2377.500139754994	5
0	7367	2377.679240474275	6
0	7369	2378.970653542526	7
0	7370	2380.716514148678	6
0	7377	2384.400715455468	7
0	7378	2384.509943678905	6
0	7384	2384.924028778237	7
0	7385	2385.133967923832	6
0	7392	2385.443445919164	7
0	7394	2386.589052033476	6
0	7401	2387.132858175987	7
0	7403	2389.931765771218	6
0	7409	2390.619639310108	5
0	7414	2390.68441781876	4
0	7420	2391.340838025295	5
0	7422	2391.41605312224	6
0	7423	2391.725782414012	5
0	7429	2394.521677237416	4
0	7435	2396.74688706582	3
0	7440	2397.054521923962	2
0	7448	2408.104646551598	3
0	7449	2409.129549416017	2
0	7455	2411.247876918777	1
0	7464	2412.371684427333	2
0	7467	2412.876554886855	3
0	7469	2413.407166864942	4
0	7470	2416.644555947094	3
0	7476	2416.660575010123	4
0	7478	2419.188972583159	3
0	7485	2420.52087719943	4
0	7487	2420.936271653282	5
0	7490	2422.167503998176	4
0	7497	2422.813821709821	5
0	7499	2423.168709117184	6
0	7502	2425.250969776026	5
0	7507	2425.581003357361	4
0	7515	2426.741585404227	5
0	7516	2427.73199530528	4
0	7522	2427.813080568311	5
0	7526	2430.191930153356	6
0	7528	2432.612501227845	7
0	7531	2432.785942610929	8
0	7533	2433.135679443249	9
0	7537	2435.130840415234	10
0	7539	2435.264699889563	11
0	7540	2436.437961275951	10
0	7546	2436.469648544314	11
0	7548	2439.07436787069	10
0	7553	2439.413713174305	9
0	7558	2441.595100385146	8
0	7563	2441.74002801583	7
0	7571	2443.533886356182	8
0	7572	2443.625330351098	7
0	7577	2444.221009715622	6
0	7583	2446.199847788819	5
0	7589	2447.976140265115	4
0	7596	2449.626647822536	3
0	7600	2452.088352365461	4
0	7604	2452.573913874486	5
0	7605	2453.107577717006	4
0	7609	2458.921576335008	5
0	7611	2459.312792038969	6
0	7615	2460.647385260545	5
0	7622	2463.423851290521	4
0	7628	2464.962785754642	3
0	7634	2466.821318619934	2
0	7639	2467.875002458269	1
0	7645	2468.514536796929	2
0	7647	2468.803705863809	3
0	7648	2469.369644743292	2
0	7655	2471.395156409676	1
0	7661	2472.607900808747	2
0	7662	2474.598164104207	1
0	7669	2477.494656010975	0
0	7684	2480.128680896185	1
0	7685	2480.983745910629	0
0	7691	2482.856408746465	1
0	7693	2483.183227065037	2
0	7695	2488.199622904533	3
0	7701	2490.977773115875	4
0	7705	2491.922499364156	5
0	7707	2492.419497881504	4
0	7715	2494.334157138511	5
0	7717	2496.586176209218	6
0	7719	2497.786588137066	7
0	7724	2498.419457999182	8
0	7726	2498.515550405974	9
0	7727	2499.523131965455	8
0	7734	2501.804350900026	7
0	7739	2503.416141058341	6
0	7745	2504.794777455237	7
0	7748	2504.874379183122	6
0	7757	2507.462966910927	7
0	7758	2507.772699788272	6
0	7767	2513.020536008578	7
0	7768	2513.187977193213	6
0	7775	2515.609135207394	5
0	7783	2518.149770913081	4
0	7791	2521.139128673826	3
0	7798	2523.395506103524	4
0	7799	2523.819564205882	3
0	7804	2526.655728234733	2
0	7810	2527.03763999963	3
0	7811	2527.606943472534	2
0	7820	2530.541088189949	3
0	7822	2531.974539317578	4
0	7823	2532.660232683814	3
0	7829	2533.794783174596	2
0	7834	2534.00415695337	1
0	7839	2534.197942091751	0
0	7847	2535.904491719343	1
0	7848	2537.638088040455	0
0	7855	2539.978184795749	1
0	7858	2540.86540901437	2
0	7861	2542.061178742661	1
0	7867	2544.161782304781	0
0	7878	2547.209284907229	1
0	7882	2548.870281830243	0
0	7896	2550.451797616845	1
0	7898	2550.71054583594	2
0	7900	2550.797286236849	3
0	7903	2551.779840600246	2
0	7908	2553.203699143711	1
0	7914	2556.939019044315	0
0	7937	2564.512479190048	1
0	7939	2565.236921002726	2
0	7944	2570.470128306423	1
0	7954	2572.187863012246	0
0	7968	2576.108501336257	1
0	7970	2576.814311847124	2
0	7972	2577.052905102941	3
0	7973	2577.546243121723	2
0	7979	2579.809953314329	1
0	7985	2581.084520322775	2
0	7986	2583.363010365973	1
0	7992	2586.230927263742	0
0	7998	2586.300110944648	1
0	8000	2587.136189286554	0
0	8032	2599.154548298427	1
0	8036	2600.082187584244	2
0	8037	2600.614359595997	1
0	8043	2601.290319747798	2
0	8044	2602.454674703446	1
0	8050	2602.996353329254	0
0	8076	2609.398121415394	1
0	8078	2611.604084376534	0
0	8090	2615.317487649012	1
0	8093	2616.959528468637	0
0	8101	2618.777362662128	1
0	8102	2619.197195836386	0
0	8129	2629.12902193771	1
0	8131	2630.392082158788	2
0	8135	2632.426250319459	3
0	8137	2633.792061981406	4
0	8138	2635.42791063756	3
0	8145	2635.975613999143	2
0	8152	2636.990946988852	3
0	8155	2638.011153783156	4
0	8156	2641.219162154415	3
0	8162	2641.625715923906	2
0	8168	2642.23668010653	1
0	8174	2642.378934096611	2
0	8177	2644.328167319311	3
0	8179	2645.499315339533	2
0	8187	2646.577185296481	1
0	8194	2648.809261580308	2
0	8196	2649.11435468569	3
0	8198	2650.529633733032	4
0	8201	2652.823780246972	3
0	8207	2652.901189025788	4
0	8212	2654.520136455078	5
0	8214	2655.106082192013	6
0	8215	2656.313391891808	5
0	8221	2656.795555997638	4
0	8228	2657.683052444533	5
0	8229	2657.952934213882	4
0	8236	2658.80769161355	5
0	8237	2659.373438649971	4
0	8242	2659.670694611813	3
0	8248	2660.18123456669	2
0	8254	2660.33709451	3
0	8257	2663.076533476677	4
0	8259	2663.688896519496	3
0	8264	2664.579461924047	2
0	8269	2665.008523249233	1
0	8277	2667.002288007409	0
0	8298	2674.376452221687	1
0	8300	2675.315763322313	2
0	8303	2679.659510979759	1
0	8310	2684.262563952278	0
0	8333	2692.003859383783	1
0	8335	2692.149000047324	2
0	8338	2693.395551387728	1
0	8344	2693.533545672807	2
0	8347	2694.88082601711	1
0	8360	2700.885536172057	0
0	8366	2700.921377738509	1
0	8370	2703.8450905307	0
0	8377	2705.715622408748	1
0	8378	2706.529292554785	0
0	8388	2710.090552223044	1
0	8390	2716.932982350688	0
0	8426	2730.457435967157	1
0	8427	2731.959297192972	0
0	8433	2733.883656045227	1
0	8434	2734.635199944595	0
0	8440	2736.12855266806	1
0	8443	2737.141938197934	0
0	8464	2739.976621800171	1
0	8465	2743.221280330803	0
0	8471	2743.680804360186	1
0	8473	2743.881096862156	2
0	8475	2745.24921418184	3
0	8477	2746.077586947923	2
0	8486	2749.41871007608	3
0	8488	2750.339842752189	4
0	8499	2753.439625653821	5
0	8501	2753.697294539301	6
0	8502	2754.395451223862	5
0	8511	2758.422051973837	4
0	8521	2760.256010534129	5
0	8522	2763.666368056991	4
0	8527	2764.727907210669	3
0	8534	2766.155043213653	4
0	8536	2766.284623743072	5
0	8537	2766.324141956527	4
0	8542	2767.547863278282	3
0	8547	2768.56887246219	2
0	8552	2768.77219493465	1
0	8556	2768.923415032195	2
0	8559	2769.443386345098	1
0	8564	2772.621099944474	0
0	8570	2773.125086367622	1
0	8573	2776.685901046415	0
0	8577	2779.10797933863	1
0	8585	2783.675680468319	2
0	8587	2785.511882719402	3
0	8588	2785.762632827638	2
0	8593	2786.395084740555	1
0	8599	2791.050373874749	0
0	8609	2796.446404225157	1
0	8610	2797.656536618544	0
0	8621	2801.937756557523	1
0	8623	2802.770933668841	0
0	8657	2810.216550021605	1
0	8660	2811.663567514304	0
0	8667	2813.615281011315	1
0	8668	2815.564298826685	0
0	8697	2823.963398199167	1
0	8698	2824.607202475968	0
0	8709	2825.499364068365	1
0	8711	2826.661724874004	0
0	8733	2831.571437654801	1
0	8734	2832.261906911782	0
0	8745	2834.822291811194	1
0	8747	2835.414293258311	0
0	8753	2835.475887424136	1
0	8754	2835.637051944436	0
0	8761	2838.146187377264	1
0	8765	2839.33923152889	2
0	8766	2839.682890524596	1
0	8772	2841.584253656697	0
0	8785	2845.021804910042	1
0	8789	2848.632414451471	0
0	8797	2849.178235127294	1
0	8799	2849.600664135278	2
0	8801	2849.642539375137	3
0	8802	2849.886223567619	2
0	8809	2851.678199637149	1
0	8814	2851.931164187202	0
0	8840	2859.709767196561	1
0	8844	2860.661696234501	0
0	8859	2867.071265705054	1
0	8862	2867.344739416426	2
0	8863	2868.284596445649	1
0	8873	2871.048302700187	0
0	8880	2872.334466247123	1
0	8882	2875.129748857907	2
0	8883	2875.934956260039	1
0	8892	2878.033987460104	2
0	8895	2878.424992152322	1
0	8901	2879.134448457343	0
0	8920	2887.405841533791	1
0	8923	2889.369028171963	0
0	8932	2891.881277188111	1
0	8934	2893.203364553622	2
0	8936	2895.351437924232	3
0	8941	2896.878528873719	2
0	8954	2899.208375759005	3
0	8956	2899.979311175285	4
0	8959	2900.552040194248	3
0	8969	2901.460280833143	4
0	8972	2902.130722848277	5
0	8973	2903.533920877174	4
0	8979	2906.631383106418	3
0	8985	2907.137058119199	4
0	8996	2913.179711439768	5
0	8997	2914.19243408465	4
0	9003	2917.025620885749	3
0	9012	2919.366420066896	4
0	9014	2920.438794183077	5
0	9016	2921.185744455007	6
0	9017	2922.738958772817	5
0	9022	2923.646836042086	4
0	9030	2926.588724350766	5
0	9032	2930.738540201592	6
0	9036	2933.554253820954	7
0	9037	2938.15620772345	6
0	9044	2940.08658148472	7
0	9046	2941.42971899895	8
0	9047	2941.465394625899	7
0	9053	2943.450704275458	6
0	9060	2943.700026584725	7
0	9061	2944.396511577169	6
0	9068	2945.755537096511	5
0	9074	2945.776874202808	6
0	9075	2945.997861240639	5
0	9084	2947.023686017279	4
0	9091	2949.195342367789	5
0	9092	2949.632914731022	4
0	9100	2952.674935290399	5
0	9101	2952.887574469233	4
0	9106	2953.163453135434	3
0	9115	2954.797805975295	4
0	9116	2955.865896876546	3
0	9121	2956.470575872096	2
0	9126	2956.540671609588	1
0	9131	2957.927378136821	0
0	9135	2958.161301208506	1
0	9139	2958.29467421188	2
0	9141	2961.401298740922	3
0	9143	2962.343703894191	4
0	9149	2963.204067427049	5
0	9151	2966.113257805879	4
0	9156	2967.280900973529	3
0	9163	2969.054860964701	4
0	9165	2972.855135475756	3
0	9171	2978.140722958861	2
0	9177	2979.074269245	3
0	9179	2980.73386753585	4
0	9182	2981.205386406284	5
0	9184	2981.497240576224	4
0	9190	2982.72016987667	5
0	9191	2984.243475333401	4
0	9196	2985.528345409685	3
0	9201	2985.878881083741	2
0	9206	2986.348070580162	1
0	9210	2987.245017474654	2
0	9212	2987.401781303852	3
0	9215	2988.087804542381	2
0	9221	2989.661856036258	3
0	9224	2995.10614593179	2
0	9230	2999.894509175949	3
0	9234	3006.883459165756	2
0	9243	3008.390119379837	3
0	9244	3008.450186810255	2
0	9249	3009.94617180134	1
0	9256	3014.118161174	0
0	9262	3015.232333433507	1
0	9266	3018.021916485147	0
0	9309	3024.460246270531	1
0	9311	3024.911035280357	2
0	9313	3025.198386747025	3
0	9315	3028.520331633965	4
0	9317	3029.936169555165	5
0	9318	3030.169944227329	4
0	9324	3030.676323455514	5
0	9326	3030.975523530931	6
0	9327	3031.077440916196	5
0	9333	3031.599789833291	6
0	9334	3032.057921011027	5
0	9340	3032.652053749209	6
0	9344	3033.788458430586	5
0	9353	3038.205191210199	6
0	9355	3041.659409940628	7
0	9356	3043.655035644255	6
0	9362	3044.117713726788	7
0	9363	3044.602607948145	6
0	9373	3047.329734121235	7
0	9375	3048.724731887927	6
0	9381	3048.730590731274	7
0	9382	3048.848026758216	6
0	9387	3049.250440704149	5
0	9393	3049.358613996731	6
0	9394	3049.387969334388	5
0	9401	3051.189716197194	4
0	9405	3053.134490721001	5
0	9410	3057.418800739245	4
0	9416	3059.544474804531	5
0	9421	3062.44005868307	4
0	9430	3067.519811538492	3
0	9436	3067.676688110975	4
0	9438	3068.249639867088	5
0	9444	3069.728464003036	6
0	9445	3069.790875510354	5
0	9453	3073.585837559884	4
0	9458	3074.743669420295	3
0	9467	3075.962394143429	2
0	9474	3076.64550040168	1
0	9482	3078.085217731176	0
0	9504	3082.71447093511	1
0	9505	3083.669918428799	0
0	9511	3083.887660327351	1
0	9514	3084.110117225635	2
0	9516	3084.752226526116	3
0	9518	3088.94365409847	2
0	9523	3089.415251047366	1
0	9531	3089.993263306211	2
0	9535	3093.965320144503	3
0	9537	3093.999999354461	4
0	9539	3095.282770664004	5
0	9541	3096.453754272724	6
0	9542	3096.500877175006	5
0	9547	3097.210299230928	4
0	9552	3097.763724708622	3
0	9558	3098.207368827415	4
0	9560	3098.501010512932	5
0	9563	3099.170439294057	6
0	9566	3099.464045756281	5
0	9575	3101.67206055956	6
0	9576	3104.155092262903	5
0	9582	3104.188552427874	6
0	9585	3105.527315129528	7
0	9586	3107.998702787252	6
0	9592	3109.102302006108	7
0	9594	3110.369042300973	6
0	9599	3110.848463146936	5
0	9606	3113.788847697033	4
0	9613	3115.022176976265	3
0	9620	3116.348319543185	4
0	9622	3116.600350566732	5
0	9624	3117.886977700124	6
0	9625	3118.608434932892	5
0	9630	3120.361647590893	4
0	9637	3121.001749132406	3
0	9643	3121.656255663775	2
0	9650	3121.858265708438	3
0	9656	3125.271298954733	4
0	9657	3125.301618507832	3
0	9663	3126.62438829433	4
0	9664	3126.892710030557	3
0	9671	3132.486224067847	2
0	9677	3136.155705731999	3
0	9679	3136.454411995444	4
0	9680	3137.915656582502	3
0	9686	3138.784959209601	2
0	9692	3139.901269401237	3
0	9695	3140.568201375762	4
0	9697	3140.638645972492	5
0	9700	3141.727982935678	4
0	9706	3142.297381103541	5
0	9707	3144.9001868118	4
0	9717	3149.047853610462	3
0	9725	3152.117642095568	4
0	9726	3152.933089489511	3
0	9733	3155.505803313454	2
0	9739	3155.722949529065	3
0	9742	3156.506088510221	2
0	9756	3157.48413485117	3
0	9760	3159.691901713225	4
0	9761	3159.807064359643	3
0	9768	3164.213393047618	2
0	9773	3166.067072485407	1
0	9784	3171.066711091244	0
0	9790	3171.08149820413	1
0	9791	3172.296404525672	0
0	9809	3175.252678773485	1
0	9813	3177.402525109239	2
0	9816	3179.846356269162	1
0	9823	3181.698681699075	2
0	9826	3183.202246096746	1
0	9832	3184.580143533321	2
0	9833	3184.979043901522	1
0	9842	3185.993076015036	0
0	9854	3188.450869564097	1
0	9856	3189.711535324897	2
0	9859	3190.901583825178	1
0	9865	3191.370195815311	0
0	9881	3195.526722743631	1
0	9882	3195.552603831476	0
0	9893	3203.974827744907	1
0	9897	3204.265724902132	2
0	9899	3204.974546459703	3
0	9900	3205.077800427703	2
0	9905	3206.404303213227	1
0	9910	3206.699447109707	0
0	9920	3213.646675197613	1
0	9921	3215.070448077408	0
0	9955	3223.696491666857	1
0	9956	3224.982256840566	0
0	9962	3226.412631003968	1
0	9966	3227.727209699657	0
0	9978	3229.347322197848	1
0	9982	3233.88141849918	2
0	9984	3235.93959236634	3
0	9985	3239.752456681877	2
0	9993	3242.287565825297	3
0	9996	3243.155206758986	4
0	9998	3245.224951124846	5
0	10002	3246.8387872596	6
0	10004	3248.057144252273	7
0	10008	3249.832037841478	8
0	10009	3250.58235904837	7
0	10014	3251.441925832447	6
0	10021	3254.340220466057	5
0	10029	3255.505060187967	4
0	10034	3256.210266473091	3
0	10041	3257.775856697476	2
0	10048	3258.451921189422	1
0	10053	3258.849606377226	0
0	10057	3259.297788058254	1
0	10064	3264.33519784537	0
0	10072	3266.050319552105	1
0	10073	3266.181305115579	0
0	10084	3266.477689189669	1
0	10085	3267.322597680822	0
0	10096	3269.825451576796	1
0	10098	3273.130612883839	0
0	10117	3276.335911071558	1
0	10118	3276.812754305403	0
0	10129	3279.081969504884	1
0	10132	3279.313193902813	0
0	10147	3284.986480730466	1
0	10150	3286.54889527811	2
0	10152	3289.750428401702	1
0	10158	3291.785555623059	0
0	10182	3299.97635561742	1
0	10183	3300.74862841233	0
0	10208	3311.954656589771	1
0	10209	3316.339246408782	0
0	10229	3323.148289591959	1
0	10231	3324.925755354816	2
0	10234	3325.469307034732	1
0	10241	3326.958880127923	0
0	10250	3328.550216366666	1
0	10252	3329.150750672072	0
0	10271	3334.919613671606	1
0	10272	3334.975090930877	0
0	10317	3354.715119560475	1
0	10318	3357.556885118197	0
0	10328	3358.677776978961	1
0	10332	3362.102366903964	2
0	10334	3362.570728524297	3
0	10337	3364.016490884945	2
0	10342	3364.032720594637	1
0	10348	3365.823225402292	0
0	10354	3366.110951121419	1
0	10357	3366.154557288556	0
0	10371	3367.155164737503	1
0	10373	3370.822331177036	2
0	10381	3374.555981891232	1
0	10388	3378.896790752835	0
0	10403	3385.759149747303	1
0	10405	3386.803338622178	2
0	10406	3387.00602250684	1
0	10416	3391.167050287798	2
0	10418	3391.22028742415	3
0	10421	3393.466781733753	2
0	10429	3394.760849254011	1
0	10434	3395.352912004772	0
0	10444	3400.867183936584	1
0	10445	3401.484461666406	0
0	10458	3403.934702589525	1
0	10462	3405.080972934761	0
0	10468	3406.492982050514	1
0	10471	3411.823349310308	0
0	10502	3420.683478983258	1
0	10503	3420.842023462951	0
0	10510	3421.794926419747	1
0	10512	3421.796805038576	2
0	10513	3422.353904893991	1
0	10521	3424.998079701339	2
0	10526	3428.814834447545	1
0	10532	3428.942202436713	2
0	10535	3429.34485835442	3
0	10536	3431.871314084285	2
0	10541	3433.732194279521	1
0	10546	3435.09999432954	0
0	10558	3435.740204991578	1
0	10562	3436.56401819832	0
0	10568	3437.51157317785	1
0	10572	3439.179568622487	2
0	10576	3440.205495389779	3
0	10579	3446.422984716072	4
0	10580	3446.827858615539	3
0	10586	3448.848897241822	2
0	10593	3450.166446897821	1
0	10599	3450.716069550926	0
0	10623	3455.670980735834	1
0	10629	3458.456240596195	2
0	10632	3461.114522014045	1
0	10637	3461.733219490799	0
0	10651	3463.847408995541	1
0	10652	3464.245856387368	0
0	10675	3472.339836287477	1
0	10676	3472.387534452425	0
0	10685	3473.630166006626	1
0	10693	3477.203436021412	0
0	10709	3484.880748069988	1
0	10710	3485.528808564867	0
0	10717	3486.84315216184	1
0	10719	3488.390921712533	0
0	10731	3495.501139186946	1
0	10733	3495.702538176862	2
0	10734	3495.870758992531	1
0	10741	3496.461918572773	0
0	10761	3508.346696223336	1
0	10762	3508.938655926339	0
0	10786	3513.418290002425	1
0	10789	3514.836909593061	0
0	10798	3518.430265221198	1
0	10801	3521.328027341098	0
0	10825	3530.466856008104	1
0	10831	3531.970230740112	0
0	10842	3532.848447165729	1
0	10847	3534.736176303396	2
0	10848	3534.788920841186	1
0	10860	3539.267590398717	0
0	10889	3546.363179669257	1
0	10891	3546.439222502819	2
0	10895	3553.485606446292	3
0	10896	3554.99149056073	2
0	10902	3556.199865693627	1
0	10909	3557.59667875103	2
0	10910	3558.2576736955	1
0	10919	3562.467389220838	2
0	10921	3563.231467304038	3
0	10923	3565.240875846115	4
0	10927	3571.224109485183	5
0	10928	3573.081446946463	4
0	10935	3573.954762481365	5
0	10937	3575.927410600539	4
0	10943	3576.071409968656	5
0	10945	3576.7040993861	6
0	10952	3580.555978734985	7
0	10953	3580.728573131456	6
0	10960	3581.095275684693	7
0	10962	3581.771607175437	8
0	10963	3582.521083855538	7
0	10968	3584.267971464665	6
0	10977	3590.549242411756	7
0	10979	3591.60459966984	8
0	10980	3593.315905836228	7
0	10985	3593.774188353299	6
0	10991	3600.152149845518	7
0	10993	3601.661919202011	8
0	10995	3602.047724115929	9
0	10996	3603.183845286583	8
0	11001	3603.21190880231	7
0	11006	3603.275701397662	6
0	11011	3605.130836451546	5
0	11017	3606.78927428989	6
0	11019	3607.525864651482	7
0	11021	3607.861655933599	6
0	11030	3610.061298511356	5
0	11035	3610.731844631648	4
0	11044	3613.447153324203	5
0	11045	3614.35243802351	4
0	11051	3616.947069626791	5
0	11052	3617.592161622825	4
0	11057	3618.642959339458	3
0	11061	3621.18309607461	4
0	11065	3625.639112521518	3
0	11070	3625.92757116547	2
0	11076	3627.731714772741	3
0	11077	3628.807747234961	2
0	11083	3629.790545729686	1
0	11088	3630.278947887869	0
0	11101	3636.157679482195	1
0	11104	3638.882431665862	0
0	11110	3639.129956097328	1
0	11113	3640.728688328818	0
0	11157	3653.372754010684	1
0	11158	3655.082793158031	0
0	11175	3663.169895140318	1
0	11177	3673.877257894073	2
0	11179	3675.907819610435	3
0	11180	3677.070653703532	2
0	11186	3677.248388617256	3
0	11188	3678.236760470884	4
0	11192	3680.776478232697	3
0	11201	3682.953400735028	2
0	11206	3683.559779941464	1
0	11216	3685.961899599314	2
0	11218	3686.587466316515	3
0	11219	3686.829399912481	2
0	11225	3687.438606274501	3
0	11226	3687.979473354331	2
0	11235	3689.121152213026	1
0	11241	3689.497395814699	2
0	11242	3689.560323939171	1
0	11248	3691.827042701079	0
0	11255	3692.112514186363	1
0	11257	3693.043887809028	0
0	11265	3694.066287308325	1
0	11266	3694.522059124051	0
0	11282	3698.087860084399	1
0	11285	3700.41280219283	0
0	11299	3711.145902483338	1
0	11302	3711.907950034774	0
0	11322	3716.492463897563	1
0	11325	3716.904323399902	0
0	11332	3719.483709101152	1
0	11335	3720.617630980599	0
0	11341	3720.760506863129	1
0	11343	3725.266422316714	0
0	11363	3734.086342885146	1
0	11364	3734.59109431463	0
0	11373	3735.220601573669	1
0	11377	3737.204092109877	2
0	11381	3738.582191621919	3
0	11382	3738.774007035922	2
0	11387	3739.463745006389	1
0	11394	3741.889549849918	2
0	11396	3742.223814681377	3
0	11397	3742.493798875319	2
0	11402	3742.690048172319	1
0	11407	3742.96708316209	0
0	11414	3745.889169846389	1
0	11416	3746.694931626583	0
0	11451	3750.897503712961	1
0	11455	3752.183938399967	2
0	11457	3752.373082947092	3
0	11462	3755.583069264176	2
0	11468	3756.04422075181	1
0	11478	3759.484536019028	2
0	11482	3761.750925761985	3
0	11485	3763.083525158365	2
0	11492	3763.247018952307	1
0	11498	3763.536153365446	2
0	11499	3764.610223442616	1
0	11506	3766.126375591888	0
0	11513	3766.55282575125	1
0	11517	3771.23947834773	0
0	11525	3772.44842879385	1
0	11527	3774.301485533719	2
0	11528	3776.398923969223	1
0	11536	3777.769150702421	0
0	11553	3783.910137721568	1
0	11557	3784.873772369556	2
0	11560	3788.83657576618	1
0	11568	3790.982605655252	2
0	11569	3792.975806124984	1
0	11575	3795.421258186538	0
0	11605	3806.952495032456	1
0	11607	3807.401409587098	2
0	11609	3809.203541998609	3
0	11611	3811.094005519547	4
0	11614	3814.692480647954	3
0	11621	3816.361215499701	4
0	11624	3819.774207097171	3
0	11631	3824.109355627033	2
0	11637	3824.625950864076	3
0	11639	3824.922179224341	4
0	11641	3826.666043016051	5
0	11644	3828.88949645785	4
0	11651	3832.190515710226	3
0	11657	3833.188932958965	4
0	11662	3834.33350007081	5
0	11663	3834.933079115583	4
0	11669	3835.842643652784	3
0	11674	3835.866351930875	2
0	11682	3838.859415223845	1
0	11690	3839.985248623864	2
0	11691	3844.428290892213	1
0	11702	3846.224525642105	2
0	11703	3849.955528117342	1
0	11710	3852.160219192103	2
0	11718	3853.992472865928	1
0	11724	3854.612399807461	2
0	11725	3854.696334402689	1
0	11731	3857.086724171633	2
0	11734	3858.673982919968	3
0	11736	3858.791554952069	4
0	11738	3860.361125484795	3
0	11747	3861.855319406549	4
0	11748	3864.134288068276	3
0	11754	3865.397440750505	2
0	11759	3865.460723663652	1
0	11767	3867.493689414665	2
0	11770	3868.02135039168	1
0	11776	3868.784094263845	2
0	11778	3870.69399849141	1
0	11786	3871.835905645327	2
0	11788	3874.088838660692	1
0	11794	3875.155470910492	2
0	11796	3878.855343214886	1
0	11804	3883.041683081652	2
0	11806	3883.227910274045	3
0	11808	3885.761681828432	2
0	11814	3886.377791382996	3
0	11815	3887.603370949784	2
0	11823	3889.760118614209	3
0	11824	3894.5844643061	2
0	11829	3895.685554087228	1
0	11836	3896.537083168699	0
0	11872	3906.19087039324	1
0	11874	3906.640647843966	2
0	11876	3907.427965254777	3
0	11877	3908.613830900126	2
0	11883	3910.03405651852	1
0	11888	3910.762652533516	0
0	11896	3912.885625788126	1
0	11898	3914.138005701366	2
0	11899	3916.996931953335	1
0	11904	3917.694425112941	0
0	11915	3918.370755814645	1
0	11918	3923.553157784098	0
0	11950	3934.044096812313	1
0	11954	3936.3973077367	2
0	11955	3936.806649482794	1
0	11963	3942.151232724572	0
0	11978	3946.394434309176	1
0	11980	3947.583853986313	2
0	11984	3949.449157317053	1
0	11990	3953.170313614938	0
0	11997	3953.530035349504	1
0	11998	3953.91729402753	0
0	12007	3954.676464935949	1
0	12011	3957.178773993932	0
0	12025	3959.372447067321	1
0	12031	3961.482804924904	2
0	12032	3961.532626495274	1
0	12042	3962.59629685629	2
0	12044	3964.326104773588	3
0	12047	3967.559049879077	2
0	12052	3967.59742523142	1
0	12057	3967.765175582843	0
0	12069	3971.386739191986	1
0	12073	3973.565324340777	2
0	12075	3975.194547559488	1
0	12081	3975.584901734926	0
0	12094	3977.889836746546	1
0	12098	3978.513216570055	0
0	12104	3979.894343074283	1
0	12105	3980.022306444121	0
0	12116	3982.945144305965	1
0	12118	3985.083534950783	0
0	12137	3988.889480758698	1
0	12141	3993.704133691205	2
0	12145	3996.931062226618	3
0	12148	3997.604263603424	2
0	12154	3998.653383138002	1
0	12159	3998.784177461846	0
0	12175	4001.305004045591	1
0	12176	4002.396396203979	0
0	12182	4003.365366864785	1
0	12183	4003.380998533147	0
0	12189	4003.454397026368	1
0	12190	4004.178240582374	0
0	12198	4005.118590621983	1
0	12199	4005.864679066372	0
0	12221	4012.79776081401	1
0	12226	4014.551505326958	2
0	12228	4016.889093574648	1
0	12235	4019.665961408362	2
0	12238	4021.851994880524	1
0	12244	4026.027317673912	0
0	12260	4033.773600757432	1
0	12261	4034.733956934708	0
0	12267	4035.648475983984	1
0	12269	4038.925107137749	2
0	12273	4039.091590887874	3
0	12275	4041.237224450966	4
0	12276	4041.508288189191	3
0	12282	4041.801515058033	2
0	12289	4043.151879620231	3
0	12290	4044.024961436187	2
0	12299	4046.335107145242	3
0	12303	4052.757696246062	4
0	12311	4059.339825382707	5
0	12313	4061.273739904238	6
0	12315	4061.435799354968	7
0	12316	4062.527605221775	6
0	12321	4063.293700661165	5
0	12326	4063.484685705516	4
0	12333	4064.439313231758	5
0	12335	4066.486263125359	6
0	12338	4068.42793949872	5
0	12345	4070.516655078607	4
0	12351	4073.801617710942	3
0	12357	4073.93774181078	4
0	12360	4076.446279993606	5
0	12361	4076.738865399631	4
0	12366	4077.212816702896	3
0	12373	4079.507700638888	4
0	12374	4080.616931292008	3
0	12383	4085.04381282927	2
0	12390	4087.973549568618	3
0	12391	4089.869653196906	2
0	12397	4092.197425005639	1
0	12403	4093.518807640368	2
0	12408	4094.529314160936	3
0	12409	4094.966517485286	2
0	12415	4095.226092573156	3
0	12418	4095.635642914622	4
0	12422	4097.300868223453	5
0	12424	4098.857011837984	6
0	12425	4100.300046744444	5
0	12432	4100.806837850939	6
0	12437	4104.160605251323	5
0	12446	4105.959742314783	6
0	12447	4106.244543980609	5
0	12454	4108.544252431249	6
0	12458	4114.688235671906	7
0	12460	4115.504605318755	8
0	12463	4116.314828558232	7
0	12469	4116.498375919961	8
0	12471	4118.185875804371	9
0	12472	4121.104000506724	8
0	12478	4121.94865845741	7
0	12487	4125.219489824996	8
0	12490	4128.417107205346	9
0	12492	4128.640943687562	10
0	12495	4130.803094700227	9
0	12502	4131.987075154578	10
0	12503	4132.160971630822	9
0	12508	4132.263012431527	8
0	12514	4133.621843038646	7
0	12522	4136.430134482426	6
0	12528	4136.537789766041	7
0	12530	4137.084766771321	8
0	12537	4138.978445500102	7
0	12543	4140.888863149135	6
0	12548	4140.987217211504	5
0	12554	4143.544881856988	6
0	12558	4146.911571599776	7
0	12559	4148.097031584465	6
0	12568	4152.146030098353	5
0	12573	4153.533528853145	4
0	12578	4153.943096096845	3
0	12587	4155.074428125224	2
0	12593	4155.676986535742	1
0	12607	4161.812373416853	0
0	12653	4186.432936011873	1
0	12658	4187.714041176049	0
0	12667	4191.217982618613	1
0	12669	4191.729427807221	2
0	12676	4194.077034478848	3
0	12677	4194.399667877997	2
0	12682	4194.845622570225	1
0	12693	4198.902749941263	2
0	12696	4200.614640486012	3
0	12699	4201.950686851301	2
0	12705	4202.846098607631	1
0	12710	4205.553813658186	0
0	12716	4205.764845226922	1
0	12721	4207.56086535006	0
0	12774	4232.948871600396	1
0	12781	4235.759874431486	0
0	12798	4239.509842470864	1
0	12799	4240.259326765715	0
0	12822	4242.685643294912	1
0	12829	4246.37536138794	0
0	12839	4248.041648732145	1
0	12842	4251.031005268363	0
0	12849	4253.819801640597	1
0	12850	4253.963885744186	0
0	12879	4264.87204266206	1
0	12883	4265.179648891269	2
0	12884	4265.487965583636	1
0	12890	4266.542973009399	0
0	12902	4271.472046537771	1
0	12903	4272.611842472957	0
0	12909	4272.612090825067	1
0	12911	4273.581054911062	0
0	12921	4274.439761865067	1
0	12925	4275.579140244335	2
0	12928	4275.893991985387	1
0	12936	4279.006287746554	0
0	12945	4281.878263565	1
0	12946	4281.925392483334	0
0	12955	4282.289919726421	1
0	12959	4283.855241563702	2
0	12962	4284.174001684941	1
0	12969	4285.007706675255	2
0	12973	4286.447958855143	1
0	12979	4286.516163131244	2
0	12981	4286.774458090873	3
0	12990	4297.649703723748	4
0	12991	4298.674859088517	3
0	12996	4298.936550427318	2
0	13008	4306.154420383376	3
0	13009	4306.182540447775	2
0	13016	4306.697696116381	1
0	13028	4318.258540325696	0
0	13036	4319.894595350684	1
0	13037	4321.141535555513	0
0	13050	4324.575849067091	1
0	13052	4325.217711368808	0
0	13068	4326.545797308039	1
0	13070	4328.166547986194	0
0	13082	4329.31965781744	1
0	13085	4332.167720070184	2
0	13086	4332.567729577024	1
0	13093	4336.921589858561	2
0	13094	4340.340234683176	1
0	13099	4341.844548655659	0
0	13114	4345.502999186498	1
0	13119	4351.938921462471	0
0	13145	4362.349576159612	1
0	13146	4363.771548162944	0
0	13162	4367.324974805891	1
0	13165	4368.127251498924	0
0	13184	4372.585112029734	1
0	13185	4372.63189203982	0
0	13219	4382.551206292562	1
0	13221	4382.959197019605	2
0	13223	4383.49963260878	3
0	13225	4383.818797400014	4
0	13231	4389.682503190191	3
0	13238	4390.03187266285	4
0	13241	4392.543353956252	5
0	13242	4393.072250080108	4
0	13252	4395.314621215955	5
0	13253	4396.205958004457	4
0	13259	4399.821874708119	3
0	13264	4399.869494259593	2
0	13270	4401.308965904671	3
0	13274	4402.215551961898	4
0	13275	4402.524552220502	3
0	13280	4403.084695475363	2
0	13286	4403.31198362678	3
0	13290	4403.978218987938	4
0	13294	4406.401830041426	3
0	13300	4407.250665346414	4
0	13304	4409.842776636783	3
0	13310	4412.192068362428	2
0	13317	4412.907007258451	3
0	13319	4417.348858745571	4
0	13321	4417.929363154922	5
0	13322	4423.251698919809	4
0	13328	4423.531192800312	5
0	13330	4424.334428099709	4
0	13338	4426.169614114964	3
0	13345	4426.480391879111	2
0	13355	4432.273363374487	3
0	13356	4434.567515460523	2
0	13364	4435.70225957431	3
0	13365	4437.625959712774	2
0	13371	4438.192593263825	3
0	13373	4438.452458583239	4
0	13375	4438.644935738777	5
0	13378	4440.65162647626	4
0	13383	4440.771990312258	3
0	13390	4442.067290336263	4
0	13391	4442.187454223706	3
0	13396	4442.729153095784	2
0	13408	4448.421576479829	3
0	13410	4448.511941126154	4
0	13414	4450.711650022305	5
0	13418	4452.593982916768	6
0	13419	4452.657086034087	5
0	13425	4453.532641452146	4
0	13430	4454.070854147366	3
0	13437	4457.850534174965	2
0	13442	4457.993797851916	1
0	13447	4459.107461316224	0
0	13462	4459.879791697431	1
0	13463	4460.812304156366	0
0	13469	4460.93959533752	1
0	13472	4463.894088596981	0
0	13482	4468.730745631481	1
0	13485	4470.398789888231	0
0	13506	4472.716326902474	1
0	13508	4473.084824435967	2
0	13509	4473.766864121131	1
0	13514	4474.061457989438	0
0	13543	4485.912459541508	1
0	13546	4487.169403447149	0
0	13554	4490.027083784871	1
0	13555	4490.099279499563	0
0	13562	4493.134459042929	1
0	13564	4493.881526278924	2
0	13567	4498.575457761435	1
0	13573	4498.873482330686	0
0	13580	4500.095071304251	1
0	13582	4501.015144094247	2
0	13583	4501.757162038128	1
0	13590	4504.418352914014	0
0	13596	4506.973826139785	1
0	13597	4507.327241694324	0
0	13621	4511.711594815849	1
0	13623	4514.393190897716	0
0	13629	4516.527246637019	1
0	13630	4517.428699196814	0
0	13637	4517.791764536042	1
0	13642	4522.321706460435	0
0	13651	4524.569543255692	1
0	13660	4532.913637139319	0
0	13666	4533.217372352523	1
0	13672	4534.657213393108	0
0	13684	4537.166100452863	1
0	13685	4537.444924822901	0
0	13691	4538.975974061423	1
0	13694	4539.879952467289	0
0	13700	4541.011298804384	1
0	13706	4544.868112591595	0
0	13720	4551.213610301462	1
0	13722	4551.32719963533	2
0	13724	4552.526053521652	3
0	13726	4553.191551017559	4
0	13728	4555.046895228997	5
0	13729	4555.19475852566	4
0	13735	4556.161644390315	3
0	13742	4557.780793496693	4
0	13744	4558.566344200619	5
0	13745	4559.097374306371	4
0	13750	4559.51478864644	3
0	13755	4559.869968290276	2
0	13761	4560.045239361357	3
0	13762	4560.213146421867	2
0	13769	4561.66112917837	3
0	13770	4561.72538538223	2
0	13778	4564.181469733153	3
0	13779	4564.388467272877	2
0	13790	4568.349314820862	3
0	13791	4568.741226295759	2
0	13796	4569.239112352442	1
0	13805	4571.144344435721	2
0	13810	4572.453419861668	3
0	13812	4573.094750751341	4
0	13816	4576.978200401721	5
0	13817	4578.059784239126	4
0	13825	4579.847840243377	3
0	13837	4582.981990562851	4
0	13842	4586.280516129021	3
0	13849	4587.584037975597	2
0	13856	4588.798326643513	1
0	13864	4592.801468937325	0
0	13870	4592.876718240835	1
0	13872	4594.514435758961	2
0	13875	4598.024043124082	3
0	13881	4601.527912906486	4
0	13882	4602.128209234001	3
0	13888	4606.280204521065	2
0	13894	4610.00597680896	1
0	13899	4610.45073860778	0
0	13940	4620.853002591808	1
0	13941	4621.057291545191	0
0	13952	4621.211040854272	1
0	13953	4621.424409465338	0
0	13974	4623.381289854792	1
0	13978	4624.55536425956	2
0	13983	4625.568959475408	3
0	13984	4626.036825152789	2
0	13990	4626.661580197774	1
0	14000	4630.540830162871	2
0	14004	4632.604860429483	3
0	14005	4632.814243478649	2
0	14010	4633.622931052441	1
0	14015	4635.394563195029	0
0	14021	4635.890050299295	1
0	14030	4640.944516442548	0
0	14037	4641.918268918695	1
0	14038	4644.454449146904	0
0	14046	4644.880635067019	1
0	14048	4645.94972506791	0
0	14054	4646.410255114152	1
0	14059	4656.006461849252	0
0	14065	4658.82035306266	1
0	14067	4658.846150670411	2
0	14069	4663.239563775361	3
0	14070	4663.640422152849	2
0	14075	4665.17258243535	1
0	14081	4665.616966078041	0
0	14088	4667.136264093862	1
0	14089	4669.021365488808	0
0	14108	4673.218774805239	1
0	14110	4673.47615982837	2
0	14112	4674.315794346239	3
0	14113	4675.211369172331	2
0	14119	4677.256618922102	3
0	14121	4679.002613923864	2
0	14130	4685.179005523955	1
0	14139	4687.00628312834	0
0	14152	4687.921373332183	1
0	14153	4688.282421490146	0
0	14175	4690.654859465583	1
0	14176	4692.887568212645	0
0	14183	4695.018542446192	1
0	14184	4700.581913803524	0
0	14202	4703.945672265351	1
0	14203	4705.4421907708	0
0	14210	4705.9416362985	1
0	14212	4706.358768972723	2
0	14216	4708.185028195671	1
0	14222	4709.538488933001	0
0	14233	4710.361879894159	1
0	14235	4711.5199678365	0
0	14296	4741.253589999513	1
0	14299	4744.186415571416	0
0	14306	4745.927860982587	1
0	14312	4748.613176252239	2
0	14313	4748.960398174532	1
0	14319	4751.005926981498	0
0	14325	4751.916577888174	1
0	14328	4754.418581156071	0
0	14349	4760.434548056924	1
0	14354	4762.836992424417	0
0	14392	4775.950133350776	1
0	14394	4777.727640290817	2
0	14396	4781.61333380487	3
0	14398	4784.166156963434	4
0	14402	4788.724508282822	5
0	14405	4789.261817449822	4
0	14411	4789.528828401463	5
0	14413	4793.286057394038	4
0	14419	4793.576125255978	5
0	14423	4794.431732636837	6
0	14429	4797.101004519974	7
0	14431	4797.881636751926	8
0	14433	4798.969272729813	9
0	14435	4799.360015324169	10
0	14436	4800.253011317403	9
0	14442	4800.277535200889	10
0	14445	4803.7274604344	9
0	14451	4804.191543177608	8
0	14457	4806.194375114215	7
0	14464	4807.962938832445	8
0	14466	4812.460038815019	9
0	14467	4812.760333491666	8
0	14472	4812.780650425925	7
0	14479	4813.690383997888	6
0	14486	4814.579244208653	5
0	14492	4817.031683642269	4
0	14499	4817.493765156747	5
0	14501	4818.182126391917	4
0	14507	4820.768749507752	3
0	14512	4822.725772313878	2
0	14519	4825.955356661012	1
0	14526	4828.157243052734	2
0	14528	4830.398654479896	3
0	14529	4830.482125513621	2
0	14536	4831.803365569827	1
0	14541	4832.561190361304	0
0	14547	4834.13750744739	1
0	14552	4836.235861405005	0
0	14559	4839.558518951874	1
0	14563	4843.062160652591	0
0	14593	4858.340097613851	1
0	14594	4858.99110382327	0
0	14608	4864.162357091983	1
0	14609	4868.077946186169	0
0	14622	4879.006167439862	1
0	14624	4884.01531042913	2
0	14625	4884.384385554964	1
0	14632	4888.02043297321	0
0	14661	4898.759814937619	1
0	14664	4900.919185860705	0
0	14673	4901.720601284393	1
0	14675	4901.947556825342	2
0	14681	4910.025843253947	1
0	14686	4910.061040646361	0
0	14702	4913.751963830026	1
0	14706	4915.368629968988	2
0	14709	4916.109163629416	1
0	14715	4917.680543166293	0
0	14737	4924.518570280242	1
0	14739	4925.787722268095	2
0	14741	4926.032478601921	3
0	14743	4929.719172670322	4
0	14744	4929.780649340137	3
0	14752	4930.543396529417	4
0	14754	4930.655981874322	5
0	14756	4932.714835908847	4
0	14762	4933.509600304105	5
0	14763	4933.860846444056	4
0	14770	4934.93126039642	3
0	14779	4937.51243673312	4
0	14781	4937.957279085978	5
0	14784	4943.119437220948	4
0	14790	4943.615671711326	5
0	14793	4945.819123075235	6
0	14795	4947.020800344671	7
0	14798	4949.073840718233	6
0	14804	4949.414115052533	7
0	14808	4952.418959494831	6
0	14813	4952.490023521011	5
0	14818	4952.840518557473	4
0	14823	4953.133906327395	3
0	14829	4955.875773120486	4
0	14832	4957.329368009828	3
0	14838	4957.935035518198	4
0	14841	4963.424105637914	3
0	14845	4965.33868664378	4
0	14848	4967.992710548461	3
0	14852	4968.464818501785	4
0	14861	4975.340394168151	3
0	14867	4976.366438439679	2
0	14872	4976.436496441561	1
0	14877	4976.690195937374	0
0	14883	4979.66695797766	1
0	14885	4980.820808635835	2
0	14888	4981.150625350764	3
0	14893	4985.534793849658	2
0	14898	4986.186167948762	1
0	14903	4986.723770467299	0
0	14939	4992.692776280685	1
0	14940	4992.87163869732	0
0	14947	4994.092706079013	1
0	14950	4994.784207783077	0
0	14977	5005.807397152068	1
0	14983	5009.357891870696	2
0	14984	5009.816418856087	1
0	14990	5010.42673408772	2
0	14993	5011.183963504451	3
0	14995	5013.912380412303	4
0	14996	5015.437015584367	3
0	15002	5015.525517288166	4
0	15004	5015.964630878366	5
0	15006	5017.123718312054	4
0	15014	5020.819087182624	5
0	15015	5020.937366442216	4
0	15020	5021.439936676269	3
0	15029	5024.320807174141	4
0	15030	5025.691707262516	3
0	15036	5027.49312033856	2
0	15042	5028.369314327232	3
0	15044	5028.654089931568	4
0	15046	5030.359786228144	3
0	15051	5030.419099813184	2
0	15059	5032.663061576268	1
0	15066	5034.655932278648	2
0	15068	5035.195648842938	3
0	15070	5036.797635584784	2
0	15076	5037.358565207687	1
0	15082	5039.498935508852	0
0	15104	5056.281255649492	1
0	15105	5056.413683317552	0
0	15119	5059.526235611029	1
0	15120	5060.305910963174	0
0	15126	5060.365731962872	1
0	15132	5062.875668041337	2
0	15135	5063.363029564438	3
0	15137	5063.68738527816	4
0	15139	5063.704431345177	5
0	15141	5064.661286243175	6
0	15148	5070.453181897434	7
0	15150	5075.225542749249	8
0	15151	5075.449634747488	7
0	15157	5075.975929759702	6
0	15163	5077.497073881138	5
0	15168	5078.121452775015	4
0	15176	5079.552900301094	5
0	15178	5080.77296665849	6
0	15179	5081.266345322313	5
0	15189	5084.57294663436	6
0	15193	5086.556015622885	7
0	15194	5086.818278774691	6
0	15200	5086.934162179227	7
0	15203	5087.619509770575	6
0	15209	5088.276203855122	7
0	15216	5094.686958900588	6
0	15224	5097.247396122219	5
0	15232	5099.185464441103	4
0	15238	5100.616215429687	3
0	15246	5102.442677671824	2
0	15252	5104.842378580818	1
0	15257	5106.976527408597	0
0	15263	5107.382155330197	1
0	15265	5108.810606257332	0
0	15290	5112.927961168749	1
0	15294	5115.627507326219	2
0	15295	5116.164138393587	1
0	15305	5116.9871235102	0
0	15327	5122.685042286879	1
0	15328	5122.75257260768	0
0	15354	5127.446571102272	1
0	15357	5128.222781336796	0
0	15377	5135.150442513231	1
0	15379	5136.74599435934	0
0	15388	5138.210504683927	1
0	15392	5142.149208049518	2
0	15393	5142.758839898069	1
0	15399	5144.548010153033	0
0	15415	5148.498516100795	1
0	15416	5152.291136633161	0
0	15444	5170.413192538887	1
0	15446	5171.150966235231	2
0	15451	5177.252987167821	1
0	15457	5177.999403317401	2
0	15459	5179.084445674705	1
0	15464	5179.184407231778	0
0	15474	5180.975534026793	1
0	15475	5182.889213385515	0
0	15512	5196.181697133691	1
0	15513	5196.35489024794	0
0	15537	5199.393975862806	1
0	15544	5205.361252228554	0
0	15565	5212.894493189188	1
0	15569	5214.888065299763	2
0	15571	5216.658949469026	3
0	15572	5217.093582290783	2
0	15579	5218.780081975795	3
0	15581	5219.309033547525	2
0	15588	5220.846124516686	3
0	15590	5224.185037821304	2
0	15595	5224.606724822503	1
0	15602	5225.072009672085	2
0	15604	5225.961309751311	3
0	15611	5231.192325092251	2
0	15617	5231.242923015976	1
0	15626	5232.851790227573	2
0	15627	5233.279437682395	1
0	15636	5235.853632063601	0
0	15642	5235.985642798193	1
0	15646	5236.799058801079	2
0	15648	5236.963199624101	3
0	15651	5237.339514993809	4
0	15652	5238.227225686776	3
0	15659	5239.763655330179	2
0	15668	5243.83459669535	1
0	15673	5245.482933788194	0
0	15687	5247.669612571471	1
0	15688	5249.980656781001	0
0	15695	5252.24355724529	1
0	15696	5252.622768882491	0
0	15708	5253.705384388417	1
0	15714	5257.426246291742	0
0	15789	5279.34516667617	1
0	15793	5281.961664943233	2
0	15797	5284.414283031731	3
0	15798	5284.501102553665	2
0	15806	5286.16793146306	3
0	15808	5286.239969719328	4
0	15810	5287.074840419361	5
0	15814	5288.181746242531	6
0	15816	5288.476914439936	7
0	15817	5289.207393129298	6
0	15826	5291.881135134262	7
0	15829	5292.600416798979	6
0	15835	5294.081505956646	7
0	15838	5295.202280823765	6
0	15844	5296.121670290256	7
0	15846	5296.339339513768	8
0	15847	5296.818259956946	7
0	15857	5299.027437634308	6
0	15864	5300.788646163961	5
0	15869	5301.239398917656	4
0	15874	5301.310246561561	3
0	15878	5302.75173939135	4
0	15881	5303.405911356176	3
0	15889	5306.527150941485	4
0	15896	5307.490915085043	3
0	15904	5309.116231683351	4
0	15906	5310.845078494387	3
0	15911	5311.608900587248	2
0	15920	5314.601219705967	1
0	15930	5318.576641109208	0
0	15953	5320.490086658496	1
0	15955	5320.690685845051	2
0	15956	5322.298912596121	1
0	15962	5323.525584684221	0
0	15970	5324.254299102314	1
0	15971	5324.953136264253	0
0	15990	5330.79250198703	1
0	15997	5333.748008358736	0
0	16012	5339.25685657415	1
0	16014	5340.960425872341	2
0	16018	5344.825939843465	1
0	16026	5346.809000475628	0
0	16044	5349.526562408923	1
0	16049	5352.967210438873	2
0	16053	5356.006293157257	1
0	16060	5361.609641774689	0
0	16066	5362.846541057412	1
0	16067	5363.127991874707	0
0	16082	5369.400596237702	1
0	16084	5370.907026849924	2
0	16085	5371.067992379363	1
0	16091	5371.556146673601	2
0	16093	5372.243338701917	3
0	16095	5372.385547055965	4
0	16097	5372.663817769837	5
0	16099	5375.105636065021	4
0	16104	5375.98045523308	3
0	16110	5376.406924734059	4
0	16111	5376.588326664717	3
0	16116	5376.623581680461	2
0	16122	5378.4875209659	1
0	16126	5379.931846236771	2
0	16131	5382.162255641654	1
0	16137	5383.692859907185	0
0	16147	5386.925498735675	1
0	16150	5387.464247107779	0
0	16157	5387.761510545697	1
0	16158	5388.150054858337	0
0	16178	5393.900589819988	1
0	16179	5394.074540872774	0
0	16188	5397.040084083014	1
0	16190	5398.664236820337	2
0	16192	5398.730459522288	3
0	16196	5401.527286997884	2
0	16202	5401.772505478685	3
0	16203	5401.985264257731	2
0	16209	5402.425570341886	3
0	16210	5402.884090554151	2
0	16217	5403.58685090894	3
0	16218	5403.742002353547	2
0	16224	5404.404047867466	3
0	16227	5405.104189095926	2
0	16234	5407.864003540115	3
0	16240	5414.194950383813	2
0	16248	5419.024147656899	1
0	16256	5420.754536787898	0
0	16262	5421.134123486387	1
0	16264	5421.222542861599	2
0	16265	5421.374865252328	1
0	16276	5424.505810126958	2
0	16277	5427.221461929709	1
0	16283	5427.370620124775	0
0	16291	5429.103874614033	1
0	16292	5429.43202391256	0
0	16303	5430.260205615508	1
0	16304	5430.741524736545	0
0	16318	5434.847974310002	1
0	16322	5436.569519568078	2
0	16324	5437.380455548349	3
0	16326	5438.809886262231	4
0	16328	5439.045678312858	5
0	16329	5439.323511012244	4
0	16335	5439.379990096978	5
0	16336	5439.626921537164	4
0	16342	5439.766834703565	5
0	16344	5440.865546860458	6
0	16348	5441.821527027016	7
0	16350	5442.817412451658	8
0	16352	5443.490189329717	7
0	16357	5444.160413621871	6
0	16361	5448.863745062547	7
0	16363	5448.910760768767	8
0	16371	5451.852967464348	7
0	16377	5452.141145720876	8
0	16381	5454.102637434071	7
0	16386	5454.289634254047	6
0	16392	5455.03719948436	7
0	16394	5455.209218562538	8
0	16395	5455.600515473137	7
0	16401	5457.970607240594	8
0	16402	5458.42603420708	7
0	16408	5458.47884592798	8
0	16409	5459.63949222333	7
0	16413	5461.377225011112	8
0	16419	5472.315039499305	9
0	16420	5473.066973247127	8
0	16425	5473.888769873219	7
0	16429	5474.245923666698	8
0	16433	5475.875349060291	7
0	16438	5476.14018875865	6
0	16443	5478.367445217431	5
0	16449	5482.693379821986	4
0	16457	5485.084508499456	5
0	16460	5486.896869508943	4
0	16468	5487.386830797758	5
0	16471	5489.728078422987	6
0	16480	5495.349586383672	5
0	16485	5495.643546105452	4
0	16493	5499.561401542423	5
0	16497	5500.279344145882	6
0	16498	5500.290941334211	5
0	16504	5502.265759560545	4
0	16510	5503.32310539683	3
0	16517	5505.487868475683	4
0	16518	5508.495953257635	3
0	16525	5512.171315766907	4
0	16529	5512.839146051783	5
0	16531	5513.068894171107	6
0	16533	5514.320398928738	7
0	16538	5519.547409446049	6
0	16545	5520.276586471858	7
0	16547	5524.055860400183	8
0	16548	5524.610686034684	7
0	16553	5524.76549901975	6
0	16558	5524.99542744822	5
0	16565	5525.597142564011	4
0	16572	5525.836529584974	5
0	16574	5526.051312378602	6
0	16575	5526.779272133131	5
0	16581	5527.069373769981	6
0	16582	5527.580152879368	5
0	16587	5528.455630426604	4
0	16592	5529.438198675991	3
0	16602	5536.963550418446	2
0	16607	5537.583944306907	1
0	16613	5538.909530305469	0
0	16641	5547.435435571278	1
0	16642	5547.839702098764	0
0	16653	5549.063579492713	1
0	16660	5551.539225573485	2
0	16664	5553.815632433288	3
0	16665	5554.718636488325	2
0	16670	5555.511694920047	1
0	16683	5563.0843014559	0
0	16695	5567.075570977188	1
0	16696	5567.768400654999	0
0	16708	5569.038839202004	1
0	16710	5571.686121105414	2
0	16712	5571.922813881111	3
0	16713	5572.025194835865	2
0	16719	5573.803567336543	1
0	16725	5574.286240136534	0
0	16739	5576.460199198619	1
0	16741	5576.513013487434	2
0	16742	5578.077320975116	1
0	16750	5579.35595161597	0
0	16762	5581.405111201569	1
0	16763	5581.502772442326	0
0	16773	5583.848426324426	1
0	16780	5587.672846046464	0
0	16797	5589.953826576455	1
0	16798	5590.411525381521	0
0	16814	5595.137781629284	1
0	16817	5596.304991622641	0
0	16826	5596.694032456402	1
0	16832	5599.48711880271	0
0	16845	5602.395920755771	1
0	16848	5603.939191510228	2
0	16849	5605.618696051338	1
0	16855	5607.303023717398	0
0	16862	5616.339277739949	1
0	16863	5616.957168857118	0
0	16890	5622.615219619128	1
0	16891	5623.010456018994	0
0	16897	5624.401246989766	1
0	16899	5625.5901492365	0
0	16922	5632.149048803871	1
0	16928	5635.261032902425	0
0	16956	5641.494159880263	1
0	16960	5642.877984734878	2
0	16965	5643.985438827425	3
0	16967	5644.718198901605	4
0	16969	5644.769059745161	5
0	16970	5647.261529525214	4
0	16976	5648.104828049634	3
0	16982	5648.124879419799	4
0	16985	5650.323662988845	3
0	16991	5650.593293592071	2
0	17001	5654.006119293455	1
0	17006	5654.292873824771	0
0	17012	5654.293512544123	1
0	17013	5654.465432335739	0
0	17031	5656.271173337316	1
0	17035	5658.705475958512	0
0	17043	5660.033279266786	1
0	17044	5660.322631319235	0
0	17075	5667.783684436487	1
0	17077	5669.238638765623	2
0	17079	5669.49735879558	3
0	17082	5671.356344726665	2
0	17088	5672.037395980638	1
0	17095	5673.029913506022	2
0	17100	5675.337308660621	1
0	17107	5675.802728210755	2
0	17108	5677.551302119944	1
0	17118	5679.944577516372	2
0	17122	5681.496596634708	3
0	17125	5686.652299352477	2
0	17131	5688.800151554785	3
0	17132	5688.960555772523	2
0	17138	5689.817014869025	3
0	17142	5691.200381583549	2
0	17147	5691.380294985284	1
0	17156	5692.920728848386	0
0	17162	5693.208562105056	1
0	17164	5695.232310671073	0
0	17173	5696.509045589806	1
0	17174	5700.0438948046	0
0	17181	5702.974732903973	1
0	17182	5703.475739973827	0
0	17212	5711.308463109362	1
0	17214	5714.138731460235	2
0	17215	5715.631336912548	1
0	17222	5716.405397873784	2
0	17224	5716.665198219721	3
0	17228	5717.354604652452	4
0	17229	5717.547044404985	3
0	17235	5718.170429237025	2
0	17241	5719.203782280324	1
0	17251	5721.76338422835	0
0	17271	5727.514908657864	1
0	17275	5729.09055111701	2
0	17278	5730.273501185159	1
0	17286	5734.841576338347	0
0	17298	5739.401403017776	1
0	17308	5742.469234431702	2
0	17309	5742.567220509304	1
0	17315	5743.632462755975	2
0	17318	5744.182202408685	1
0	17328	5745.882122692568	0
0	17342	5747.51853015606	1
0	17343	5750.011048736169	0
0	17349	5750.068687585454	1
0	17350	5750.352329792036	0
0	17359	5751.534271326087	1
0	17361	5751.554199758288	2
0	17365	5754.713244852351	3
0	17367	5756.074286030245	4
0	17369	5757.301486316845	5
0	17372	5757.659251176178	4
0	17377	5758.028518654315	3
0	17387	5760.462761766873	4
0	17388	5762.674531391243	3
0	17395	5764.280076719877	4
0	17398	5766.310204345064	3
0	17404	5768.542414365287	2
0	17409	5769.151748978822	1
0	17415	5769.855344369096	2
0	17420	5773.57175878687	1
0	17426	5774.907330783798	2
0	17427	5775.820100408422	1
0	17433	5776.673193117627	0
0	17447	5782.478402339331	1
0	17450	5783.770995940229	0
0	17467	5787.503672278687	1
0	17470	5788.788024779701	0
0	17482	5793.811468727799	1
0	17483	5796.661817533614	0
0	17490	5800.750587998603	1
0	17491	5801.392694651858	0
0	17508	5806.443013371982	1
0	17509	5807.49906070297	0
0	17515	5807.613308189145	1
0	17517	5808.063921145965	2
0	17522	5810.851588130285	3
0	17525	5817.644859328067	2
0	17531	5818.126022150548	1
0	17537	5820.536956756511	0
0	17576	5832.393046518491	1
0	17578	5832.440049659652	2
0	17579	5832.84681070964	1
0	17587	5833.697580086424	2
0	17590	5836.137899465908	1
0	17596	5836.487237836423	2
0	17599	5836.9339739348	1
0	17606	5837.936593244469	2
0	17614	5842.982597680067	3
0	17615	5844.144678486432	2
0	17622	5845.191345286109	1
0	17628	5846.568554081081	2
0	17632	5847.862629934438	1
[...]
5	85215	27774.951503433226	4.14458566001
5	85223	27775.849692996613	3.243949632306
5	85228	27776.316458190003	1.215071866614
5	85260	27788.787685308728	7.864487587296
5	85287	27797.283367002126	6.327388355505
5	85300	27803.095169486958	9.907896739893
5	85306	27804.111660460128	9.948331057425
5	85312	27804.833600690477	6.754474218706
5	85317	27804.887712593424	4.379879143933
5	85324	27805.876655619729	3.038493594162
5	85334	27809.817725596255	4.38624874333
5	85370	27831.597092773518	16.081977059185
5	85377	27831.827268274952	13.797073516526
5	85384	27833.356346997954	14.530955172278
5	85391	27834.184415034716	11.553802272796
5	85396	27834.409275727277	2.62820504315
5	85424	27842.830606883762	7.664932510188
5	85432	27844.951628109113	7.048326085856
5	85438	27848.911696307285	10.673447127296
5	85445	27849.040015937349	7.929160520679
5	85450	27849.232776236112	6.738001368208
5	85461	27851.162704711114	7.110247879728
5	85466	27854.31465682819	4.544810550299
5	85476	27857.761981788885	7.401319741382
5	85483	27859.039117512381	2.972967501229
5	85523	27871.945994486338	5.736606518338
5	85558	27897.69200631594	8.18209056043
5	85566	27899.209412482127	8.80462270337
5	85574	27901.074645390816	7.596648938617
5	85581	27904.05669585035	6.420683534461
5	85592	27907.111740637609	8.210025047163
5	85602	27910.492408920316	8.089206033259
5	85612	27912.464221310848	7.726949108797
5	85617	27913.067374576309	7.908304384247
5	85639	27919.381127495298	0.272491312633
5	85649	27923.080246922771	3.731722803787
5	85662	27927.309697421696	3.842670520609
5	85678	27934.48710010033	4.466038863191
5	85689	27939.274087548075	8.518729659166
5	85699	27943.2605646147	8.458373990165
5	85704	27944.453306398413	7.076814877245
5	85762	27970.615959357629	1.153395714913
5	85774	27975.829269013471	4.484466491915
5	85796	27983.286203164112	3.868094596806
5	85802	27984.044813602373	1.016057052919
5	85820	27989.501552443853	4.358481793322
5	85826	27990.893694831622	3.298149027985
5	85842	27997.194085212075	4.122393425348
5	85852	27999.418527189299	6.18021055347
5	85860	28000.348272697621	6.775500095243
5	85869	28002.885543165675	3.209613239102
5	85907	28027.780058395378	11.695039200453
5	85915	28031.992433080216	14.666265939209
5	85921	28034.339438523578	9.039947681508
5	85927	28036.037576071026	5.509003552993
5	85971	28058.488839064943	6.738710359081
5	85977	28059.842464860466	3.841782125852
5	85986	28062.08673422339	5.771272975666
5	85992	28064.750394879418	3.915442585758
5	86004	28066.026529196225	0.184403269627
5	86021	28069.848916263819	0.583581435494
5	86034	28071.211119463786	0.781230408422
5	86055	28075.06018019291	2.704596808325
5	86064	28076.237694127496	1.354548167969
5	86069	28076.689369192243	1.695771331509
5	86084	28083.574012125589	7.796995825032
5	86090	28085.197174388262	6.516707355634
5	86095	28085.510989224904	2.149448946313
5	86111	28094.144485603753	7.21141814731
5	86135	28102.222269766694	5.133639675549
5	86155	28113.67369181005	10.490423408712
5	86166	28115.137299259206	9.559690044956
5	86172	28116.290215059485	8.877464825118
5	86180	28120.13626121137	10.26285156267
5	86187	28122.572231186383	8.720828598701
5	86196	28122.881377854891	3.746016793621
5	86233	28136.465091346843	5.113415644799
5	86240	28136.922340556746	5.493259431251
5	86246	28138.526988732295	4.350803710358
5	86253	28140.519101078346	3.844273723064
5	86284	28155.092134333641	11.786481554303
5	86295	28159.767009868177	9.692071216234
5	86300	28159.927843343062	6.485148151187
5	86330	28173.935518581434	3.821750887095
5	86346	28177.767417469614	0.592217655218
5	86374	28186.684756664358	5.394822280395
5	86386	28192.673820286304	1.655545884802
5	86398	28195.836657008016	1.840228917187
5	86430	28214.602819038993	7.022693687018
5	86435	28214.610449055095	6.956977808815
5	86440	28214.655048039685	5.857615482033
5	86447	28215.066373768761	3.46447249162
5	86468	28221.106195221515	4.113834050646
5	86473	28222.596622697509	3.934066121673
5	86496	28235.166108192231	3.45189237931
5	86518	28241.256648848802	3.736933778139
5	86529	28243.260755683285	5.197916053752
5	86537	28245.748598594467	5.056270884368
5	86542	28246.040786390049	0.353042949656
5	86558	28253.836443072484	3.946863784945
5	86571	28260.349923276263	6.789256548411
5	86576	28260.428432173477	0.113528375138
5	86599	28269.324401924893	3.86027715084
5	86617	28273.240791546537	2.340995602531
5	86645	28281.422787553969	6.953473930725
5	86653	28286.749414201631	10.451536414887
5	86659	28288.332970287814	11.839409635527
5	86664	28288.336880875898	11.1844825618
5	86677	28293.994298950743	16.174146434111
5	86686	28298.762799174946	20.018637077825
5	86697	28301.641896880078	10.750053574231
5	86703	28305.966656767075	12.650943936281
5	86708	28306.146860985841	10.914359489291
5	86713	28306.252538140518	5.494584766405
5	86737	28309.733694652941	2.335902069782
5	86756	28324.27292602301	3.460175283486
5	86776	28330.147510029649	3.615865218904
5	86784	28333.640777861993	6.181760993164
5	86799	28343.773076153881	16.268368066076
5	86804	28343.932885328581	16.091037850772
5	86810	28345.594695965613	12.392329184171
5	86829	28354.717514475916	7.19286567423
5	86835	28358.895339924779	10.738462226932
5	86841	28360.356347523936	8.985919685739
5	86858	28367.87877358016	7.282331961392
5	86872	28372.29274092369	2.616361120247
5	86891	28378.788630058598	4.153617048486
5	86910	28387.159049673187	0.716466258375
5	86941	28400.916425085238	4.415550422473
5	86963	28409.413274003661	8.181528999687
5	86973	28413.291678747652	9.90824753675
5	86978	28414.553359612331	1.783251962875
5	87001	28421.593398722243	6.985489974962
5	87006	28422.918746204126	7.257494725686
5	87011	28423.131835444335	3.977862517584
5	87047	28433.473096441066	1.872434020011
5	87055	28437.513276188012	5.564589677328
5	87076	28447.641472708801	6.61100544795
5	87088	28453.204767359283	7.982195393445
5	87096	28454.908570966275	5.10660815562
5	87101	28456.134828984547	5.750740306901
5	87140	28473.703785896187	2.356395308586
5	87162	28482.213733872173	7.399528046066
5	87167	28482.225096155623	5.262889333569
5	87183	28494.831353922997	16.034791530114
5	87191	28498.263729564972	19.370490796772
5	87197	28501.475561879722	17.023655218203
5	87210	28503.447236753711	16.445449748146
5	87215	28503.567401146988	10.993987505833
5	87222	28504.13541476411	2.277794302947
5	87229	28507.791363579831	5.761517895361
5	87234	28507.973523144984	5.429998506185
5	87268	28515.967076283236	4.019174781611
5	87280	28519.495892745076	6.92392857333
5	87286	28522.761536904891	9.782094655064
5	87304	28535.532857957253	21.599435627424
5	87310	28537.079143758027	19.893635512006
5	87323	28539.382410143008	20.767391135046
5	87340	28546.322714747367	21.642467221063
5	87350	28548.283546998893	19.581256788478
5	87357	28549.939946838474	19.69128535372
5	87362	28550.56123183099	19.33945585288
5	87373	28553.881855036358	16.784130218698
5	87378	28553.966679955902	16.628262059032
5	87386	28555.86665107535	16.538726943077
5	87393	28560.093371691655	19.54786789308
5	87414	28571.00472583315	26.169766612819
5	87419	28571.378149246231	24.324580138177
5	87425	28574.641731399081	21.899702616957
5	87431	28576.533096431528	20.877791684331
5	87442	28582.339487221764	23.498710096528
5	87449	28583.920382954414	22.11783638723
5	87454	28583.98853996457	16.576733382879
5	87462	28585.653144078793	17.773603373307
5	87471	28588.865101704311	8.251796363822
5	87476	28589.281499121142	8.01736592969
5	87483	28593.9042192413	9.215560337602
5	87490	28596.094325937896	9.498181902187
5	87506	28603.64562679015	13.625377445964
5	87516	28606.931286406124	8.912215874027
5	87521	28607.112985136191	8.127607398311
5	87527	28608.705809139323	7.688987587769
5	87535	28609.008639103563	4.935399708398
5	87541	28613.704352214018	7.893091433945
5	87547	28616.868610360396	8.000990233035
5	87563	28620.566568062655	2.699566960645
5	87590	28628.586396640012	1.30090633449
5	87615	28634.360467534888	5.240549263187
5	87625	28637.064392933178	7.193460244715
5	87635	28638.606633629968	8.02906606529
5	87640	28639.446220495895	8.672747314286
5	87648	28643.365482257421	12.389732133039
5	87653	28643.597723854771	7.464816343561
5	87664	28648.543803739489	12.005663292064
5	87673	28651.152860222036	13.273753120051
5	87679	28652.109924331678	13.678467253564
5	87688	28661.597921667903	19.816118261037
5	87694	28662.558610978542	2.694541488449
5	87701	28663.548179401925	3.379360379633
5	87708	28666.363477803391	3.123097970704
5	87729	28669.971278495898	1.830913035017
5	87734	28670.199667092466	1.943158989081
5	87752	28672.35313573059	2.144053691203
5	87757	28674.508916050584	3.618863507974
5	87763	28675.662464454243	3.689121639541
5	87797	28686.259140496117	4.384194496684
5	87824	28694.891381286676	3.912527959568
5	87831	28695.30913076289	3.917700012082
5	87847	28700.705307541753	5.271822088477
5	87860	28704.941240125337	4.013641706123
5	87875	28710.918009461151	3.735495751484
5	87888	28718.151105318368	4.686367675311
5	87908	28727.419084112506	7.635751276498
5	87916	28728.683369176073	6.698256957003
5	87926	28730.879359417016	6.43165126783
5	87939	28734.50072810926	6.314219506513
5	87946	28735.424857131158	2.137886558271
5	87954	28738.16649638404	2.960546407904
5	87979	28740.967302033945	0.311009339285
5	87991	28744.343429228915	3.530354332653
5	88029	28752.415277046412	1.347972432452
5	88052	28765.623117158026	7.897124250488
5	88067	28769.592518142688	3.675988009354
5	88084	28774.162409718735	1.613896904691
5	88091	28776.432131099307	3.808706946195
5	88108	28784.425645614143	8.598683468195
5	88113	28784.588027680475	5.813654380609
5	88136	28789.827352276726	4.03467934234
5	88147	28794.352724969347	7.527934574551
5	88159	28797.864539722411	7.532200439483
5	88165	28798.169409596856	5.627305365765
5	88171	28798.731373338088	3.892282263318
5	88203	28808.598966556907	6.705528469602
5	88221	28813.803463110509	4.520745467509
5	88229	28815.419271919977	4.93469989066
5	88243	28818.670397965335	2.977378353948
5	88264	28826.981513056818	3.800434762589
5	88280	28832.258389866072	2.920246984455
5	88287	28835.204147430081	3.371812366497
5	88302	28841.852717706053	4.040637133124
5	88308	28842.59239147113	2.790760862563
5	88331	28857.582455347636	6.312454228318
5	88349	28868.710583992549	12.236441047326
5	88356	28868.854125060213	9.973659487273
5	88364	28873.317072619303	14.078333747222
5	88370	28879.967798328483	12.708761541129
5	88399	28894.871499508963	12.427118235802
5	88405	28897.882472720824	15.033237094158
5	88410	28898.520994344882	11.349210386307
5	88430	28903.378683707505	2.481672716917
5	88436	28904.459842771207	3.38554780762
5	88465	28913.048207921267	3.181546126223
5	88498	28925.887916233818	4.818867113504
5	88512	28933.611226201612	9.54050209893
5	88518	28933.760947875014	8.721802250511
5	88524	28936.205176452661	9.839988327544
5	88529	28937.033235435001	7.225496727842
5	88538	28939.964515468543	7.367131166593
5	88583	28965.14229513031	1.791583471799
5	88603	28973.785266716411	5.172191765297
5	88610	28974.013179426604	3.251383678833
5	88615	28974.367378152919	3.065441390718
5	88620	28977.109832957582	3.139862193096
5	88664	28991.728159841303	11.134761457589
5	88675	28996.762024559294	11.795258019219
5	88680	28998.379431907031	7.149232031522
5	88687	29002.907917254121	8.628397968436
5	88694	29003.860599769256	9.150182219134
5	88701	29006.217789716143	2.985457565679
5	88715	29011.130581542764	5.460601454189
5	88722	29014.212584066776	6.450989365901
5	88728	29014.706843564458	5.276561339913
5	88753	29020.255233423689	3.199229558437
5	88766	29024.606868617887	3.860080910231
5	88803	29041.547755370259	3.380001082271
5	88821	29046.238529842562	4.421495639772
5	88831	29047.305626698073	3.229718105826
5	88855	29054.658251437552	2.146102029478
5	88876	29064.060561789017	5.830962764515
5	88901	29073.670603689008	8.600033577631
5	88912	29075.768392348716	7.974142330761
5	88919	29078.282650679363	9.012874128307
5	88927	29078.999400973672	8.761055020391
5	88949	29083.442723745826	3.964553765619
5	88954	29083.584488192535	3.698672665434
5	88976	29103.155947812964	8.062684670536
5	88999	29110.388797440499	5.624510512981
5	89034	29121.792884810219	6.681507981458
5	89041	29126.871820177413	6.602891013497
5	89047	29127.550776502129	5.930187472655
5	89072	29137.096365421404	2.397386215924
5	89084	29145.28963745598	8.776748452664
5	89091	29148.150310221595	3.043276712354
5	89102	29149.446716065146	4.119599957192
5	89108	29150.611081571896	2.348343625351
5	89113	29151.412417083053	2.515957924424
5	89152	29159.859505334831	3.665357829055
5	89161	29161.646718887879	1.820066975502
5	89169	29163.721551302914	3.196299184678
5	89207	29176.502099071751	5.299699257242
5	89220	29182.467276128376	9.919039915051
5	89225	29186.667609267273	13.07198145731
5	89230	29187.080325603047	12.345031130097
5	89235	29188.180708168964	11.858003863239
5	89242	29192.493799282252	13.214085489914
5	89266	29197.819693603977	4.695341692242
5	89297	29203.794460461453	1.432575207188
5	89328	29213.577611762314	3.338277215058
5	89333	29213.938619363444	3.337940537129
5	89346	29216.706811310178	5.201653583799
5	89352	29218.659477882357	5.290338049019
5	89358	29220.848339990799	4.844488390392
5	89364	29224.162115399317	7.731053814237
5	89377	29229.696299088961	2.490753199884
5	89420	29252.573299480238	21.702565286441
5	89426	29253.150054645079	15.210848055461
5	89431	29253.313012596777	13.979793124509
5	89436	29254.531514924885	9.5352138718
5	89443	29254.94261035439	7.646123658348
5	89449	29256.712499640698	9.21206525555
5	89462	29260.293380773403	9.344805854083
5	89467	29260.740906004974	5.832274089805
5	89472	29260.880732187183	3.889648454783
5	89523	29282.609142543361	3.746297876729
5	89529	29283.55885738793	3.978290628055
5	89577	29300.643456615692	3.752374779997
5	89617	29314.572935997807	10.176123072966
5	89622	29315.763422333993	7.24954537052
5	89664	29337.367311168078	7.584968360462
5	89669	29337.450730158106	0.7570379137
5	89689	29341.394720820705	3.594424179725
5	89698	29346.579882987297	7.866587945305
5	89705	29349.254593250408	8.741079459049
5	89715	29349.900945996774	9.185252927621
5	89720	29350.661121042062	6.17445543756
5	89725	29350.855215350464	1.527508790563
5	89732	29352.08705222394	2.264100684965
5	89760	29363.031055665874	9.943122257179
5	89766	29363.865342901257	4.959508732255
5	89772	29364.510288881189	3.400970210342
5	89786	29368.409654692689	2.28120660615
5	89817	29380.040622698142	6.894837282979
5	89826	29384.330527009833	8.302413847153
5	89832	29387.804768751272	10.998340822029
5	89840	29390.004120610765	7.591014447231
5	89845	29390.526842469806	1.118087243985
5	89871	29396.842013553688	5.518379052591
5	89876	29397.012181746239	4.698337372457
5	89884	29398.646120685653	5.517269327649
5	89890	29399.866720008928	4.208448110983
5	89904	29402.76025201459	4.805666076042
5	89912	29404.288992633617	3.939751770728
5	89919	29407.275091094621	6.279402283067
5	89931	29408.441258805865	0.129906812275
5	89948	29412.658911598757	3.375880813645
5	89982	29429.406508694978	10.316586791732
5	89992	29431.661684842854	6.535431843615
5	89999	29432.815969494944	5.837091530163
5	90004	29433.711950099272	5.092622484956
5	90011	29434.776865986125	4.984291513907
5	90018	29436.678233288484	2.571845673978
5	90023	29437.31355389692	1.05857879603
5	90047	29450.869674197743	10.624145990726
5	90053	29454.832916682168	13.163668326896
5	90065	29464.538941654844	17.028339102327
5	90073	29468.343423614997	11.06315529156
5	90081	29471.080274815536	8.108447994125
5	90096	29474.925353869077	2.945521869578
5	90123	29483.536517951247	3.205552700395
5	90130	29483.873889593464	0.911624557312
5	90162	29501.040550156598	14.797197851783
5	90171	29503.37308966607	11.481918699605
5	90183	29506.662637459278	14.421737815206
5	90191	29507.413719313986	6.002522509898
5	90196	29507.919755118006	3.379748256397
5	90201	29508.66946231661	3.571582697682
5	90234	29520.287069553115	6.537618281214
5	90239	29521.01917459127	4.345502394423
5	90251	29530.88659627869	12.536567901282
5	90263	29532.477400047745	12.451326616395
5	90275	29535.656604136908	6.953395521344
5	90280	29536.543033000068	7.019907762504
5	90292	29540.154767676442	7.902869165758
5	90301	29542.288784683232	8.944025121343
5	90311	29552.245866714981	18.388289433461
5	90316	29552.948535885307	14.685056690458
5	90331	29557.294384332034	3.093793803818
5	90358	29563.558404789678	2.771189006265
5	90366	29568.917283330659	7.155095650711
5	90391	29578.146541883843	3.699795006537
5	90396	29578.438472929053	3.239969385928
5	90412	29581.63023474518	1.136645841284
5	90428	29594.485761395589	13.481432215753
5	90433	29594.831625226183	9.295739703142
5	90440	29597.058791273424	10.331101141083
5	90445	29597.157373671816	9.866144212135
5	90452	29604.338410226278	8.762081393867
5	90536	29644.772731769677	11.827853391647
5	90541	29644.95036472018	11.665701117204
5	90551	29647.124736640423	8.707320228349
5	90556	29648.561696073819	10.060547852246
5	90564	29649.939140468932	4.106295376564
5	90571	29650.531791710869	1.339745442867
5	90599	29664.460540183233	6.671743583419
5	90615	29672.990889180734	7.977225198657
5	90639	29687.965950365957	4.500610191859
5	90658	29692.151170475675	3.496048146634
5	90665	29693.0418678226	0.902501140858
5	90702	29706.567771779586	2.009589397387
5	90733	29724.575109648314	16.466923153653
5	90740	29725.771795510261	16.608487198744
5	90745	29725.950358817851	12.171932418897
5	90753	29729.004100294557	8.564123330458
5	90761	29730.018322035243	9.18849817484
5	90766	29730.790249978771	7.673104597854
5	90771	29731.21493898235	5.927042446381
5	90797	29740.063704293457	1.722330580589
5	90832	29749.738709411725	3.578118921025
5	90839	29750.241626893841	3.170788673138
5	90845	29750.979934771793	2.19544481218
5	90852	29753.746190262732	4.188596115611
5	90858	29755.277313089187	5.470986568231
5	90883	29762.058142420796	1.595464581964
5	90908	29765.876716302452	1.73596351346
5	90930	29774.186866174073	5.526502870123
5	90937	29777.907575628151	8.259477405669
5	90949	29780.14267066156	8.162172163244
5	90954	29781.660826382056	1.835574275261
5	90977	29786.811850783432	1.904856193046
5	90986	29789.616792226296	2.989823461109
5	90991	29790.244379539177	2.679411156892
5	91008	29795.797688932041	5.405766976389
5	91015	29799.430387851232	4.651484062252
5	91034	29808.542680302297	6.294775250291
5	91039	29809.544462239984	6.209754643982
5	91045	29810.740055144784	5.344928713886
5	91071	29823.149361990113	11.245144313855
5	91079	29825.155654680527	11.39823593505
5	91091	29831.326982587315	9.854977739929
5	91096	29832.78081759466	10.544477166741
5	91101	29833.097279396806	7.435534538303
5	91106	29833.89556333449	5.553149888999
5	91123	29837.29487108686	1.476601189227
5	91132	29841.81194218418	5.327903961497
5	91138	29844.261627628045	4.262756826698
5	91161	29851.514430131624	4.042284778045
5	91169	29853.514365101237	2.76933289989
5	91187	29859.896660604973	4.723185288469
5	91207	29865.783551795069	5.86674505836
5	91215	29867.27056325709	7.025864223936
5	91223	29868.211542656613	4.230957481295
5	91228	29868.806968135463	3.198903705952
5	91259	29875.291707755291	3.418686187948
5	91276	29882.562453456379	6.756669187097
5	91282	29883.133204490072	3.77934387432
5	91304	29892.723303750406	7.297300463087
5	91311	29893.848781184132	8.353485170083
5	91324	29899.562610261263	10.40248461128
5	91329	29900.470307036133	6.76391200543
5	91338	29906.501102793766	10.816569404675
5	91345	29908.093778391646	11.184910786728
5	91368	29913.025977795803	4.199788391857
5	91373	29913.231924113963	3.719301811571
5	91393	29923.795669074237	5.979789070036
5	91445	29952.954438738964	11.116263898883
5	91450	29953.33755063562	8.486789689686
5	91455	29954.543840770678	6.188136756865
5	91472	29956.758082150812	1.868971743141
5	91503	29970.857050216899	7.30069928338
5	91510	29972.067301747277	5.487267312643
5	91530	29976.268118337079	0.802465699816
5	91548	29987.025332879064	9.831394363124
5	91557	29990.19937038696	6.405751297813
5	91566	29991.534469263506	4.250840268427
5	91581	29997.18534278965	8.671115131595
5	91587	29999.062185280891	8.26816119138

