version 2
run Third-n2-9-20191016-14:53:43-7744
attr configname Third-n2
attr datetime 20191016-14:53:43
attr experiment Third-n2
attr inifile omnetpp.ini
attr iterationvars ""
attr iterationvarsf ""
attr measurement ""
attr network org.omnetpp.queueing.Pizza
attr processid 7744
attr repetition 9
attr replication ""
attr resultdir results
attr runnumber 9
attr seedset 9
param **.PS.maxInventoriedPS 2
param **.U1.interArrivalTime exponential(4s)
param **.U2.interArrivalTime exponential(6s)
param **.PS.serviceTimeForInventoryU1 exponential(1.4s)
param **.PS.serviceTimeForInventoryU2 exponential(1.4s)
param **.PS.serviceTimeDirectU1 exponential(1.8s)
param **.PS.serviceTimeDirectU2 exponential(1.8s)
param **.PS.probabilityProducing 0.8
param **.CS.serviceTimeU1 exponential(2.3s)
param **.CS.serviceTimeU2 exponential(2.3s)

vector 0 Pizza.EntryQueueU1 queueLength:vector ETV
attr interpolationmode sample-hold
attr title "queue length, vector"
vector 1 Pizza.CS queueLength:vector ETV
attr interpolationmode sample-hold
attr title "queue length, vector"
vector 2 Pizza.EntryQueueU2 queueLength:vector ETV
attr interpolationmode sample-hold
attr title "queue length, vector"
vector 3 Pizza.sink lifeTime:vector ETV
attr interpolationmode none
attr title "lifetime of arrived jobs, vector"
attr unit s
vector 4 Pizza.sink lifeTimeU2:vector ETV
attr interpolationmode none
attr title "lifetime of arrived jobs, vector"
attr unit s
0	0	0	0
0	14	2.829327048168	1
0	18	4.997960584635	2
0	24	6.138574597535	3
0	31	8.064738748436	2
0	37	8.154543048765	3
0	42	13.461486624221	4
0	44	14.999701408543	3
0	49	15.335939761108	2
0	56	17.161482602082	1
0	60	18.298077294298	2
0	66	22.070148397974	1
0	75	28.561183883883	0
0	84	29.778488803229	1
0	85	30.254516456071	0
0	92	32.479558092541	1
0	93	34.790284075871	0
0	136	48.251662872257	1
0	140	52.906495126579	2
0	142	54.27273668239	3
0	143	54.914935861581	2
0	154	64.644490451104	3
0	155	64.884778338944	2
0	160	65.010171896992	1
0	167	65.390358880845	2
0	173	67.586130408328	1
0	181	68.587275857711	0
0	190	71.720528136672	1
0	192	71.862133977037	2
0	197	72.553782724011	1
0	203	73.103341247327	2
0	207	73.994082499863	3
0	210	74.976035830183	4
0	211	77.92610986454	3
0	217	78.480695505338	2
0	223	79.088736224639	1
0	230	80.206930935203	2
0	231	80.774537584029	1
0	239	82.067599994733	0
0	251	87.447074211696	1
0	253	88.465830958767	2
0	258	90.528074376992	1
0	264	91.720543258172	2
0	265	92.085482462024	1
0	270	92.351729109847	0
0	274	95.080164408282	1
0	276	98.182590194241	2
0	278	98.344334008869	3
0	280	99.710349479211	4
0	284	101.032360483468	5
0	286	101.678857606571	6
0	287	102.575198611805	5
0	294	105.678543667169	6
0	297	107.182922469386	5
0	303	107.429199702605	6
0	306	107.85445953637	7
0	308	108.547232851305	8
0	311	111.01979173234	7
0	316	111.294401015084	6
0	322	111.46200063715	7
0	325	114.318237754492	6
0	331	114.62129150815	7
0	332	115.184562228473	6
0	338	116.747235634878	5
0	343	116.845130812191	4
0	349	121.235062934772	5
0	352	122.97590242258	4
0	357	123.150728307731	3
0	363	124.183353073062	4
0	364	126.751749470128	3
0	369	129.384958154553	2
0	373	130.706727224586	3
0	379	135.368788242325	2
0	386	136.537959313552	3
0	392	143.265321626631	2
0	397	143.964328145786	1
0	407	148.695238379854	2
0	408	149.125013359343	1
0	415	157.985321856898	0
0	438	161.704126498457	1
0	441	162.089105319489	0
0	452	164.002544213692	1
0	456	166.482208708449	2
0	459	167.811065037454	3
0	460	168.342059784358	2
0	470	169.874449144741	1
0	475	169.926273455351	0
0	486	175.720764935685	1
0	488	176.401180849938	2
0	489	176.934972204785	1
0	499	179.486097681516	2
0	500	179.987017841502	1
0	506	180.086218795444	2
0	508	182.339636890472	1
0	513	182.388416936377	0
0	561	192.484944128546	1
0	563	192.561146981895	2
0	568	194.364809742478	1
0	577	202.005302910681	0
0	584	202.518191709893	1
0	585	204.529981990259	0
0	610	212.165889727255	1
0	612	212.167256372961	2
0	614	213.532138209308	3
0	618	213.867567779954	4
0	620	214.330887841402	5
0	621	215.327790978593	4
0	627	215.590289883116	5
0	630	216.343700315846	6
0	632	217.834909280267	7
0	635	221.489411851843	8
0	636	221.561560349541	7
0	641	221.638084569415	6
0	648	223.611370557008	5
0	659	226.424671520664	4
0	664	226.594121524142	3
0	669	226.939925542092	2
0	675	227.207587888006	3
0	676	227.458729194519	2
0	682	228.3593119191	3
0	688	233.444502618654	2
0	693	234.013680945908	1
0	698	235.377264625816	0
0	702	235.777851600255	1
0	704	236.692994230433	2
0	706	236.712849049884	3
0	717	242.64502687551	2
0	722	243.60305763272	1
0	729	247.882282251498	0
0	750	251.103442407973	1
0	751	252.02087314581	0
0	763	254.495194320158	1
0	765	255.019603186224	2
0	766	257.082004313451	1
0	772	259.676046299854	0
0	778	260.345616588634	1
0	780	261.905214500428	2
0	781	262.263643532438	1
0	787	262.290583516937	2
0	789	262.990398065445	1
0	795	263.693027418201	0
0	829	278.969730103754	1
0	833	282.008491100894	0
0	840	282.809879612586	1
0	842	283.290908381447	2
0	844	283.958741860113	3
0	845	284.128022624329	2
0	852	284.963889333703	3
0	853	287.242500362584	2
0	860	287.485775059417	3
0	861	287.746321377756	2
0	873	289.740524682196	3
0	874	290.600000163341	2
0	879	291.675770109876	1
0	884	292.581657587741	0
0	888	293.443484714495	1
0	893	296.024032408723	0
0	897	296.737803048991	1
0	900	299.105113475829	0
0	913	303.77115972616	1
0	914	304.281245291756	0
0	929	308.402583407921	1
0	935	312.334044891402	2
0	939	316.4593731703	1
0	944	317.847207780441	0
0	950	317.965576874743	1
0	952	318.193599381014	2
0	957	319.198745088467	3
0	962	320.69500071936	2
0	967	320.726801768756	1
0	973	321.540057563291	0
0	980	324.244787151537	1
0	984	327.655661643303	2
0	988	328.057938642304	3
0	990	329.760355193568	4
0	992	330.154179861438	5
0	995	331.827463945884	4
0	1002	332.914707765783	5
0	1005	333.3680686691	4
0	1010	333.651841456941	3
0	1017	336.058321508168	2
0	1023	337.90886562592	3
0	1025	338.189118469578	4
0	1026	339.027797885364	3
0	1032	339.279014847605	2
0	1037	341.272315031823	1
0	1042	344.96037571605	0
0	1054	347.828363788491	1
0	1057	351.251002640004	2
0	1058	353.573185382875	1
0	1064	354.269512420911	0
0	1077	354.729858035128	1
0	1079	356.237373818169	2
0	1081	356.312911838902	3
0	1082	356.778801081892	2
0	1093	359.943803147081	1
0	1100	362.547241020707	0
0	1104	364.479533882695	1
0	1108	367.606507665017	2
0	1110	368.254515695071	3
0	1117	370.323686583236	2
0	1124	373.075241729604	3
0	1125	375.291903835537	2
0	1130	375.889046597985	1
0	1143	379.610578685442	0
0	1159	382.866169529495	1
0	1160	383.375386123442	0
0	1166	383.597025495916	1
0	1167	384.265095209737	0
0	1176	391.348955354567	1
0	1180	393.567996858385	0
0	1192	397.667414933469	1
0	1193	398.207963284848	0
0	1204	398.674720625586	1
0	1206	400.732469049604	0
0	1231	414.599372998236	1
0	1232	414.635774685544	0
0	1256	426.483603512127	1
0	1259	430.290699363505	0
0	1277	435.969873423768	1
0	1278	438.277237701008	0
0	1287	440.4940479809	1
0	1292	446.764139403688	0
0	1298	447.253763405039	1
0	1299	447.38471034169	0
0	1308	451.83427763384	1
0	1312	454.104771224803	2
0	1314	454.131091644702	3
0	1316	454.344673935041	4
0	1322	464.819324754165	5
0	1323	465.114067776866	4
0	1328	465.845796527698	3
0	1333	466.161185342813	2
0	1341	468.379874127271	3
0	1344	470.137385932081	4
0	1346	472.21134584409	3
0	1357	475.756017974161	4
0	1358	476.401678901281	3
0	1364	477.031606228447	4
0	1367	477.173129013485	5
0	1368	477.608744204429	4
0	1374	478.187416875601	5
0	1376	479.584692990769	4
0	1383	480.724297114849	3
0	1387	482.000531566855	4
0	1389	482.485481063022	5
0	1395	484.231034331776	6
0	1397	485.374785480915	7
0	1401	498.832910797408	8
0	1403	499.122187609786	9
0	1404	501.724889295972	8
0	1409	503.015293565764	7
0	1415	505.511999802545	8
0	1418	507.900609607743	7
0	1424	508.494428140865	6
0	1429	508.748538194684	5
0	1436	510.992697357461	6
0	1437	513.06000581783	5
0	1442	513.30064294049	4
0	1447	514.802299527248	3
0	1461	520.259468668202	2
0	1469	521.245659675605	1
0	1476	522.830430258953	2
0	1477	525.729241333277	1
0	1483	527.788413678737	0
0	1491	528.923605247224	1
0	1493	529.307060417626	2
0	1495	532.738833764437	1
0	1501	533.547629915829	0
0	1521	538.340147680074	1
0	1522	539.671831730103	0
0	1534	545.713295238225	1
0	1535	545.938086095678	0
0	1559	555.708053128911	1
0	1560	556.751908475625	0
0	1589	566.454821622563	1
0	1590	566.531059833802	0
0	1613	577.005955844508	1
0	1615	577.594258203498	0
0	1647	587.308982766233	1
0	1649	588.053516083282	2
0	1650	588.23004292836	1
0	1655	588.751022955977	0
0	1675	596.339551388447	1
0	1677	598.225759043772	2
0	1680	599.660404197216	1
0	1686	600.480153046214	0
0	1692	600.756053201952	1
0	1693	601.306131985402	0
0	1711	605.407815454406	1
0	1715	607.957704219734	2
0	1717	609.810349195697	3
0	1723	612.461007853656	2
0	1732	613.466556126827	3
0	1733	613.778926564845	2
0	1738	613.827201597643	1
0	1742	620.725486802634	2
0	1744	621.399020771008	3
0	1746	621.513377831992	4
0	1751	622.9730044708	3
0	1757	625.874363721549	4
0	1760	626.916385763708	3
0	1769	630.93343791399	4
0	1771	632.468604142644	5
0	1773	634.331931960245	4
0	1779	634.399094318301	5
0	1780	634.989924271377	4
0	1786	635.945440074036	5
0	1787	636.066331236102	4
0	1794	638.186633562591	5
0	1796	639.272621770272	4
0	1802	639.480083937592	3
0	1808	641.185687642519	2
0	1814	641.35763052029	3
0	1816	643.20716662816	4
0	1817	643.825227644777	3
0	1828	645.388151564592	4
0	1830	646.397254489103	5
0	1831	646.982847874901	4
0	1837	647.089901514495	5
0	1838	647.112118292848	4
0	1848	652.984552866843	5
0	1849	654.151856715549	4
0	1854	654.287266741818	3
0	1862	655.027875763511	4
0	1863	655.837892753413	3
0	1869	656.594263363031	2
0	1878	664.140995908067	1
0	1883	665.635144097405	0
0	1901	668.713254888996	1
0	1903	670.733269402214	0
0	1915	672.807250809462	1
0	1916	674.165087896983	0
0	1927	679.658526923216	1
0	1931	680.764116994007	0
0	1950	682.559841403287	1
0	1952	682.628131036233	2
0	1957	686.598903721707	3
0	1958	688.258856970628	2
0	1964	689.319242162458	3
0	1965	690.458757949016	2
0	1971	690.471761488469	3
0	1976	694.777541275212	2
0	1983	696.047921012991	1
0	1989	697.031889283953	0
0	2009	701.872553573368	1
0	2012	705.351378143532	0
0	2018	706.011529878158	1
0	2020	706.537994506001	0
0	2066	726.635224802935	1
0	2067	727.288568253391	0
0	2078	728.970532222067	1
0	2079	729.528686007202	0
0	2106	740.108320537963	1
0	2107	740.412693802597	0
0	2119	743.529849341795	1
0	2120	745.107756976251	0
0	2129	745.507597634178	1
0	2132	747.168863676188	0
0	2145	750.381900019846	1
0	2146	750.494190421867	0
0	2153	751.244906249137	1
0	2154	751.817138383083	0
0	2172	753.416280853497	1
0	2174	756.646251912804	0
0	2180	756.703005328599	1
0	2182	761.224572723248	0
0	2201	766.787210231366	1
0	2206	768.720710539938	0
0	2213	770.585179606833	1
0	2215	771.509093841916	0
0	2226	777.493965664837	1
0	2227	777.616967337313	0
0	2244	784.187404036233	1
0	2246	784.7165957684	2
0	2255	791.274596069974	3
0	2256	792.738423469594	2
0	2264	794.53445818887	1
0	2270	795.258799282225	0
0	2276	796.951599573415	1
0	2277	797.058718528109	0
0	2290	798.614178960135	1
0	2292	799.608067002476	0
0	2303	802.733472710493	1
0	2305	804.234854166717	0
0	2316	806.579493045282	1
0	2318	807.427313703361	2
0	2319	808.380063068184	1
0	2328	812.029659725601	2
0	2330	814.365433100477	3
0	2333	814.495345358949	2
0	2339	815.540934837881	3
0	2341	816.66798177685	2
0	2349	817.412852271771	1
0	2358	818.669702484991	2
0	2359	818.856215697036	1
0	2365	820.60850967009	0
0	2376	821.597313940433	1
0	2378	822.049797440152	2
0	2380	823.022863889592	3
0	2383	823.884064894691	2
0	2389	823.916185879167	3
0	2393	826.070836853898	4
0	2394	826.145007142399	3
0	2400	826.950339253248	2
0	2407	830.503064958365	3
0	2408	832.169903550459	2
0	2414	832.220068932654	3
0	2415	832.743449336437	2
0	2420	834.27199492485	1
0	2425	835.621797309946	0
0	2451	845.467084095053	1
0	2458	848.357890733834	2
0	2459	848.594889436275	1
0	2465	850.047309628575	0
0	2478	852.783078998596	1
0	2480	854.756846866379	2
0	2483	855.406014589592	1
0	2489	855.693947737466	2
0	2492	857.127510421001	3
0	2494	858.428466650091	4
0	2495	858.569475561524	3
0	2503	860.232346396989	4
0	2505	860.433263243108	5
0	2509	861.484617107526	6
0	2511	862.13263241348	7
0	2512	862.898030964893	6
0	2517	863.112492764081	5
0	2524	864.707013344679	4
0	2532	865.33614289606	5
0	2533	866.237517162519	4
0	2538	867.055572483622	3
0	2543	868.191408068689	2
0	2550	870.156392359461	3
0	2554	871.888376115623	2
0	2559	872.331098805368	1
0	2566	873.478328919932	0
0	2591	879.322654295025	1
0	2592	881.790606174734	0
0	2599	882.82067066899	1
0	2603	883.348474942599	2
0	2606	884.501290111435	1
0	2613	885.494300249077	0
0	2619	885.922397931031	1
0	2622	888.939761269959	0
0	2635	891.689938897856	1
0	2636	892.051594499152	0
0	2673	912.161632653073	1
0	2676	913.291475610369	0
0	2687	914.279594726031	1
0	2691	917.270862036224	2
0	2694	920.376386376769	3
0	2695	921.321866560699	2
0	2703	924.279308262474	1
0	2709	924.987884460215	0
0	2715	925.000544860532	1
0	2718	925.80912318253	0
0	2725	926.527430703988	1
0	2727	927.974506112763	0
0	2737	932.513069795069	1
0	2740	933.673751339632	0
0	2746	934.09295675249	1
0	2748	934.802654097761	0
0	2773	938.646547838735	1
0	2778	943.849085739629	0
0	2785	947.71028158542	1
0	2786	953.456241977702	0
0	2801	960.857112093964	1
0	2811	965.827587603322	2
0	2814	970.090594254986	1
0	2820	970.229948998889	2
0	2823	970.368943811668	1
0	2830	973.618334894933	2
0	2832	975.175750406686	1
0	2838	975.902125294368	0
0	2845	977.350680003927	1
0	2846	978.718089698573	0
0	2852	979.217504897246	1
0	2854	979.800201157418	2
0	2856	983.974338359816	1
0	2861	984.286491214311	0
0	2868	987.001055377889	1
0	2869	987.367429564814	0
0	2873	987.384476979982	1
0	2876	989.162586250622	0
0	2908	1000.271523148898	1
0	2909	1001.189679931994	0
0	2925	1008.46710672186	1
0	2929	1010.154574760715	2
0	2930	1011.108994659324	1
0	2935	1011.147504661345	0
0	2955	1018.167346955728	1
0	2956	1018.423546069386	0
0	2970	1021.494490184284	1
0	2972	1022.262938986677	2
0	2975	1023.195477940561	1
0	2981	1024.059385539105	2
0	2983	1025.170191394482	3
0	2984	1025.206504412597	2
0	2988	1025.460759197016	3
0	2992	1025.880148814418	4
0	2994	1028.455966392965	5
0	3000	1029.873868859438	6
0	3001	1030.532289842634	5
0	3006	1033.251671018109	4
0	3012	1034.250909990811	5
0	3016	1035.392884560219	6
0	3019	1037.58140570537	7
0	3021	1039.68290274721	8
0	3022	1042.636796491023	7
0	3028	1043.115998709364	8
0	3030	1044.48583492972	9
0	3031	1044.925396219656	8
0	3037	1046.473742870439	9
0	3039	1047.24496385165	8
0	3044	1048.265424347687	7
0	3049	1050.6891930507	6
0	3056	1055.68933380118	7
0	3059	1056.567322222408	8
0	3061	1056.734585391387	9
0	3062	1058.220085648775	8
0	3068	1061.725549329962	7
0	3074	1063.187953644282	6
0	3080	1063.834362972799	7
0	3086	1065.074340019322	6
0	3092	1066.00245866699	5
0	3099	1069.752524501233	6
0	3101	1070.759476618211	7
0	3102	1070.831228276757	6
0	3109	1072.846284288732	7
0	3111	1074.652870306982	8
0	3113	1074.834443927939	9
0	3114	1074.987718781121	8
0	3119	1076.032900330723	7
0	3124	1077.343510684242	6
0	3129	1077.383070492875	5
0	3135	1078.923659173882	6
0	3139	1079.458817369538	7
0	3140	1079.651559024079	6
0	3146	1079.889026921584	7
0	3151	1083.765053232941	6
0	3156	1083.999754485881	5
0	3161	1085.710961955677	4
0	3165	1085.711065501301	5
0	3171	1088.231534473264	6
0	3172	1089.364708609439	5
0	3177	1090.400010335909	4
0	3181	1090.472698318193	5
0	3186	1091.402439740532	6
0	3188	1091.498717160096	7
0	3191	1093.643240470482	8
0	3192	1093.64326130111	7
0	3198	1095.497609708059	8
0	3203	1101.132633621658	7
0	3210	1102.945702690138	8
0	3212	1104.191232753334	9
0	3213	1104.994605133662	8
0	3221	1108.071857199676	9
0	3222	1110.551477137911	8
0	3227	1110.862867848435	7
0	3233	1111.872989878803	8
0	3235	1112.458734230704	7
0	3240	1112.485221961942	6
0	3247	1114.774724513964	7
0	3250	1118.131087200467	6
0	3255	1119.070975689898	5
0	3263	1121.445954550062	6
0	3268	1122.846268084154	5
0	3272	1123.104336560648	6
0	3276	1124.614789703894	7
0	3278	1126.132881042646	8
0	3279	1126.666383216458	7
0	3283	1126.891936045368	8
0	3285	1128.678298753672	9
0	3287	1132.954617366829	10
0	3290	1133.959094222582	9
0	3294	1134.306960300612	10
0	3297	1137.496692863704	9
0	3304	1140.081026394014	8
0	3310	1141.118900490709	7
0	3316	1141.860612727474	8
0	3320	1142.261327394004	9
0	3321	1143.420940009845	8
0	3326	1143.833290938195	7
0	3333	1146.775805995911	8
0	3337	1150.72223869777	7
0	3342	1151.171025869708	6
0	3347	1151.303097941972	5
0	3354	1152.829637220142	6
0	3358	1155.831984921795	5
0	3363	1157.291241411118	4
0	3369	1157.852379417205	5
0	3373	1163.241809402123	6
0	3375	1163.793949254593	7
0	3377	1163.829373167176	8
0	3379	1166.631234722283	9
0	3381	1167.223984619208	10
0	3385	1169.526849896324	11
0	3387	1170.356900158945	12
0	3389	1170.713644458538	13
0	3391	1173.632944494995	14
0	3392	1174.323682682853	13
0	3399	1178.531676094725	14
0	3400	1178.560258423141	13
0	3408	1181.210853398072	14
0	3410	1181.958225201214	15
0	3411	1182.530470069959	14
0	3417	1184.311814295356	15
0	3421	1186.522582373839	14
0	3426	1187.085974241917	13
0	3430	1187.645317209205	14
0	3432	1190.065284492308	15
0	3437	1192.343135554722	14
0	3446	1195.677291360193	15
0	3450	1200.130015975924	16
0	3452	1201.989888851969	17
0	3453	1202.630413359976	16
0	3460	1206.881185413348	15
0	3467	1209.518928498638	16
0	3470	1211.228079060452	15
0	3476	1213.615459588994	14
0	3482	1214.029315441734	15
0	3483	1214.433295011878	14
0	3488	1215.115212608738	13
0	3496	1218.152389038765	12
0	3503	1218.577568994112	13
0	3504	1221.018115755862	12
0	3509	1221.456614698204	11
0	3513	1221.705929380417	12
0	3518	1228.13164704561	13
0	3520	1229.655363641127	12
0	3527	1231.510728886073	13
0	3528	1233.577659671683	12
0	3536	1236.051929046088	13
0	3541	1240.317290298112	14
0	3543	1240.689251532539	15
0	3550	1245.522421600955	14
0	3556	1246.488368976158	13
0	3563	1247.018780424866	12
0	3571	1248.592409363059	11
0	3578	1251.494210035756	10
0	3588	1257.2729713816	9
0	3597	1265.427854768766	10
0	3599	1265.804966687461	11
0	3601	1265.932734323827	12
0	3603	1266.267725721176	13
0	3605	1268.265859063031	14
0	3606	1269.64660015354	13
0	3614	1271.990689173862	12
0	3621	1272.511124668021	13
0	3624	1273.00039852285	12
0	3629	1273.272478314313	11
0	3635	1274.125646324733	12
0	3636	1274.245238417122	11
0	3643	1275.150138748373	12
0	3644	1275.772885311761	11
0	3649	1276.801382534753	10
0	3654	1278.458528278324	9
0	3658	1279.054394466291	10
0	3662	1280.155572326828	11
0	3663	1280.394653318682	10
0	3667	1280.570263480207	11
0	3670	1284.174665651437	10
0	3676	1285.315577751811	9
0	3681	1285.470216930073	8
0	3689	1287.898501065663	9
0	3691	1288.993435074349	10
0	3694	1289.40875246994	11
0	3696	1289.524138827331	12
0	3697	1290.43023059335	11
0	3704	1291.081014678198	12
0	3705	1291.177028368177	11
0	3710	1292.333640945123	10
0	3714	1292.854143552622	11
0	3718	1296.8883596773	10
0	3725	1297.106096635403	9
0	3729	1297.504540824373	10
0	3732	1298.378224177715	9
0	3739	1299.598127746197	8
0	3749	1303.04361927139	7
0	3755	1303.608055521	6
0	3760	1304.329426372211	5
0	3767	1308.406282462515	4
0	3772	1309.293760954888	3
0	3777	1309.441719537731	2
0	3781	1309.855691994881	3
0	3784	1311.593637025299	2
0	3793	1314.579566064049	1
0	3797	1314.845486881977	2
0	3801	1320.339923289006	3
0	3802	1320.764255380264	2
0	3806	1320.897740901043	3
0	3808	1321.183589248752	4
0	3810	1322.50330843106	5
0	3818	1325.419551958845	6
0	3827	1332.404565512559	5
0	3833	1333.49807623624	4
0	3839	1335.343902619772	3
0	3844	1335.686353845466	2
0	3852	1336.867341241154	3
0	3853	1338.161467904764	2
0	3860	1338.57806388057	3
0	3861	1339.017945954555	2
0	3866	1339.210926148129	1
0	3872	1340.919993943782	2
0	3877	1342.912471676976	1
0	3884	1347.312683406344	2
0	3888	1348.388722689608	3
0	3891	1350.979971450672	2
0	3898	1353.631942928414	1
0	3904	1355.718835599638	2
0	3905	1356.461782784056	1
0	3909	1356.685113325074	2
0	3916	1357.725283916696	3
0	3918	1358.096936656051	4
0	3921	1358.471618674714	3
0	3929	1359.6507574208	4
0	3930	1362.557255453167	3
0	3937	1364.255018977182	2
0	3942	1365.803581709617	1
0	3947	1372.15814786364	0
0	3963	1386.229365611208	1
0	3965	1387.047832856776	2
0	3970	1390.715814774587	1
0	3978	1393.15790140195	0
0	4002	1396.918700284085	1
0	4003	1396.982195580371	0
0	4013	1406.22273667993	1
0	4026	1410.523656605048	2
0	4027	1413.061104682363	1
0	4032	1413.06601464387	0
0	4057	1417.093206150302	1
0	4059	1417.677147236758	2
0	4061	1417.810350583743	3
0	4062	1420.315696608492	2
0	4067	1420.902089919477	1
0	4073	1420.964195846539	2
0	4077	1423.929874026147	3
0	4079	1425.211225464961	4
0	4083	1431.524809103548	5
0	4084	1433.511006179414	4
0	4090	1434.16176790592	3
0	4099	1435.094589120413	4
0	4100	1435.388362158731	3
0	4105	1435.589678749781	2
0	4113	1437.117099007051	3
0	4118	1439.562040639511	4
0	4120	1440.370947927842	5
0	4121	1441.064743527889	4
0	4129	1444.153237479817	3
0	4137	1448.343628366756	2
0	4143	1449.695746497296	1
0	4150	1451.25196945021	0
0	4156	1454.203368613704	1
0	4158	1455.344485770164	2
0	4159	1455.380190257314	1
0	4163	1455.578747576877	2
0	4165	1456.582539835559	3
0	4167	1457.031667334976	4
0	4174	1464.45146161116	3
0	4181	1464.493872509229	2
0	4189	1466.526653186638	3
0	4191	1466.605622086416	4
0	4193	1467.355536125597	5
0	4194	1468.058354943338	4
0	4200	1468.255212210306	3
0	4208	1471.954931687925	2
0	4214	1472.546339263677	3
0	4217	1476.088077900512	4
0	4220	1477.860411865477	3
0	4226	1478.255563379365	4
0	4228	1481.643767457829	3
0	4235	1483.749470233616	2
0	4241	1485.037987140557	1
0	4246	1488.01081235947	0
0	4250	1488.360652996062	1
0	4252	1489.080225589068	2
0	4254	1489.473578318358	3
0	4263	1493.882743312239	4
0	4264	1493.94245289632	3
0	4270	1495.549815363843	4
0	4272	1497.362229209716	5
0	4273	1497.672517276595	4
0	4279	1500.277765648905	3
0	4285	1501.204778387377	2
0	4292	1501.489794419178	3
0	4293	1501.549927299161	2
0	4299	1503.368385785228	1
0	4305	1503.644999996711	2
0	4309	1508.769383819529	1
0	4317	1511.866386608762	0
0	4323	1511.878373293589	1
0	4328	1513.219288194539	2
0	4335	1517.411305978058	3
0	4336	1517.875111768968	2
0	4342	1520.793545780596	1
0	4348	1522.629448068585	0
0	4375	1530.778661815737	1
0	4377	1532.9797299506	2
0	4381	1534.375809014668	3
0	4382	1534.733555832011	2
0	4388	1537.023074766469	1
0	4393	1537.563681487077	0
0	4399	1538.164880891404	1
0	4403	1540.327142187895	0
0	4427	1547.495322606635	1
0	4430	1548.011513325411	0
0	4436	1548.342646065507	1
0	4440	1550.148970806082	0
0	4460	1554.213913009029	1
0	4465	1555.156691411297	0
0	4474	1556.22115430266	1
0	4478	1558.027902255685	0
0	4495	1563.592287198731	1
0	4500	1565.996722486391	0
0	4508	1569.551446085782	1
0	4510	1569.908623186611	2
0	4512	1570.459007141212	3
0	4514	1571.865983627366	2
0	4521	1572.341493570799	3
0	4524	1574.419982152645	2
0	4529	1574.478446225646	1
0	4536	1576.454633141702	0
0	4544	1579.711836600211	1
0	4547	1581.483135779882	0
0	4553	1581.640017217362	1
0	4563	1597.980826500628	2
0	4565	1598.591680677244	3
0	4567	1599.387492987885	4
0	4568	1602.418912176776	3
0	4574	1602.820654168381	4
0	4576	1604.679769070403	3
0	4581	1606.474923659639	2
0	4587	1607.503525809101	1
0	4592	1607.541711243295	0
0	4596	1608.022110025574	1
0	4601	1611.693858434384	0
0	4618	1613.636070350291	1
0	4619	1614.002599639003	0
0	4636	1617.565403713411	1
0	4638	1619.261876699942	0
0	4644	1619.271182278477	1
0	4649	1622.029311105376	0
0	4668	1627.274022725625	1
0	4670	1629.608701811009	0
0	4707	1640.503590282419	1
0	4710	1641.687657124186	0
0	4724	1647.841888680221	1
0	4726	1649.082611559146	2
0	4728	1651.201726056989	3
0	4730	1652.291926635516	4
0	4734	1654.630572781508	5
0	4735	1654.727381565932	4
0	4744	1660.970353669476	3
0	4750	1662.032415853235	4
0	4751	1662.128783704927	3
0	4759	1664.337542151673	2
0	4769	1666.517166481045	3
0	4771	1671.66802011566	4
0	4772	1674.152086249798	3
0	4780	1675.07357425651	2
0	4787	1676.317769567973	1
0	4793	1676.573919245864	2
0	4794	1677.184328180114	1
0	4799	1678.020856359895	0
0	4806	1680.091294048239	1
0	4810	1680.864153108717	2
0	4811	1683.437978476644	1
0	4818	1684.462509278066	0
0	4836	1689.895107943143	1
0	4841	1691.831837440853	2
0	4843	1692.97737307512	3
0	4845	1693.153526559883	2
0	4854	1694.945741965345	3
0	4855	1695.12493936976	2
0	4860	1695.644097219947	1
0	4866	1695.837457008756	0
0	4873	1696.58784267735	1
0	4874	1697.143448325478	0
0	4887	1699.98380046066	1
0	4892	1701.737964010608	0
0	4899	1704.505740580735	1
0	4900	1707.537983273879	0
0	4907	1708.923907781989	1
0	4909	1714.605864462873	0
0	4922	1715.355968905798	1
0	4925	1716.617947669103	0
0	4936	1716.993159921086	1
0	4938	1719.106483874918	0
0	4945	1719.793131975913	1
0	4946	1720.265733850261	0
0	4952	1720.560430983236	1
0	4954	1722.487778762408	0
0	4963	1724.779451082921	1
0	4965	1731.831590684914	2
0	4971	1735.595496953112	3
0	4973	1736.174003734954	4
0	4974	1736.709425110401	3
0	4982	1738.508282346261	4
0	4984	1738.71057248761	5
0	4985	1738.760996896232	4
0	4991	1739.107532959794	5
0	4992	1739.514510429024	4
0	4997	1740.209318717903	3
0	5002	1740.784154600395	2
0	5006	1741.479050944436	3
0	5013	1746.096190665263	2
0	5022	1748.028547422619	1
0	5028	1748.169634134203	2
0	5033	1748.850919652693	3
0	5034	1748.951956900028	2
0	5039	1748.971931021559	1
0	5045	1749.757170336767	2
0	5050	1752.451573281395	1
0	5058	1759.267053246531	0
0	5070	1761.56631652275	1
0	5073	1762.842571953097	0
0	5102	1770.52781513487	1
0	5105	1771.642291766521	0
0	5119	1777.339615046673	1
0	5122	1778.21488631388	0
0	5130	1778.308910213505	1
0	5131	1778.471406465181	0
0	5137	1778.49762310516	1
0	5138	1778.912485087755	0
0	5142	1782.66315977078	1
0	5149	1785.095633788492	0
0	5169	1786.84775286541	1
0	5171	1788.499331517519	2
0	5173	1791.618342936811	3
0	5175	1791.859731197534	4
0	5180	1793.200285719035	3
0	5186	1793.524557068074	2
0	5191	1793.869637662321	1
0	5196	1795.616320011725	0
0	5218	1804.879898343127	1
0	5223	1807.526126000578	0
0	5236	1813.588382274048	1
0	5237	1813.6404882256	0
0	5246	1814.439445080922	1
0	5253	1819.136927222738	0
0	5257	1822.406734692893	1
0	5265	1825.901250894314	2
0	5266	1826.188102898386	1
0	5272	1826.943676183707	2
0	5273	1827.925219818335	1
0	5278	1828.23160034573	0
0	5282	1830.203973492841	1
0	5284	1831.332452487566	2
0	5286	1833.407059578556	3
0	5288	1833.427709424496	4
0	5292	1838.49099990175	3
0	5300	1843.155379873358	4
0	5306	1844.083466071631	5
0	5307	1845.323286942571	4
0	5311	1846.257823176837	5
0	5318	1848.258285837133	6
0	5323	1852.10618655638	5
0	5330	1854.111974090698	6
0	5331	1856.139013617245	5
0	5336	1856.632970936872	4
0	5343	1861.186736659576	3
0	5350	1863.404417359128	4
0	5351	1864.108397212177	3
0	5359	1865.143687138606	4
0	5360	1865.157230259137	3
0	5366	1865.720817796212	4
0	5367	1866.197447412814	3
0	5373	1866.903563321366	4
0	5376	1868.932357512059	3
0	5381	1870.842568633285	2
0	5386	1871.472668217127	1
0	5391	1872.319448625921	0
0	5434	1891.049777610887	1
0	5438	1894.044575609132	2
0	5442	1895.280069497604	3
0	5443	1897.14189006379	2
0	5452	1900.075995515139	1
0	5457	1900.781770665273	0
0	5470	1908.134892033479	1
0	5471	1910.615604666488	0
0	5481	1912.483824772192	1
0	5487	1915.732276450905	2
0	5489	1917.272338321476	3
0	5490	1917.399865408041	2
0	5497	1920.010255606221	3
0	5500	1923.717029366208	2
0	5507	1928.054929422602	3
0	5508	1931.553071742981	2
0	5513	1931.605693192973	1
0	5521	1933.482806170335	2
0	5523	1933.894916235114	3
0	5524	1934.086949570204	2
0	5530	1934.219098508211	3
0	5533	1937.204963569075	4
0	5534	1939.249757031728	3
0	5541	1943.990502150536	4
0	5543	1944.200414495192	5
0	5544	1946.315142908272	4
0	5550	1946.97194047742	5
0	5552	1949.507103157583	4
0	5557	1950.869989108244	3
0	5564	1953.687435786793	2
0	5570	1955.167267167733	1
0	5575	1955.82710811034	0
0	5616	1965.424782070494	1
0	5619	1966.749916873963	0
0	5625	1967.332879053764	1
0	5627	1969.282096552747	2
0	5630	1971.407313263277	3
0	5631	1975.254971759798	2
0	5637	1976.046503117471	1
0	5647	1981.678050331221	2
0	5648	1981.802773993665	1
0	5654	1982.574863205565	0
0	5668	1988.367398569819	1
0	5669	1988.704145606391	0
0	5675	1989.13348896518	1
0	5678	1989.758905649793	2
0	5679	1989.924435845253	1
0	5684	1990.020750301452	0
0	5695	1993.988278983532	1
0	5700	1996.045761623625	0
0	5709	1998.062896689549	1
0	5712	2000.860351784554	0
0	5718	2001.227929752374	1
0	5719	2002.244407742191	0
0	5728	2006.828557490642	1
0	5729	2007.253132134392	0
0	5735	2008.78291869908	1
0	5737	2010.452541347716	0
0	5754	2017.567304788473	1
0	5757	2021.438313987308	0
0	5771	2025.498756407521	1
0	5778	2030.303977122073	2
0	5780	2032.043999673311	3
0	5781	2032.747607104768	2
0	5786	2034.251872001468	1
0	5793	2035.142575359818	2
0	5795	2035.718040117878	3
0	5799	2039.118786268753	2
0	5807	2040.378142364837	1
0	5813	2045.679503026737	0
0	5819	2046.086067726234	1
0	5820	2046.539104645862	0
0	5832	2047.570539234798	1
0	5835	2048.391305727286	2
0	5836	2048.650258051193	1
0	5842	2049.639727165561	0
0	5850	2052.477662950752	1
0	5852	2052.739667607668	2
0	5853	2053.018282656147	1
0	5858	2053.828625984089	0
0	5864	2053.992214285509	1
0	5868	2055.496038616122	2
0	5869	2056.310132542737	1
0	5874	2057.147300094195	0
0	5910	2065.059659176988	1
0	5912	2066.876697062164	2
0	5916	2068.218404948187	3
0	5917	2068.564225766601	2
0	5923	2068.765319915127	3
0	5925	2069.178839218224	2
0	5930	2069.430299370562	1
0	5935	2069.599146358403	0
0	5946	2071.474856716345	1
0	5949	2072.750457088258	0
0	5956	2075.164747760947	1
0	5958	2075.335364334022	2
0	5959	2075.368246669589	1
0	5968	2079.96371802942	0
0	5980	2083.194310055147	1
0	5981	2083.921870209055	0
0	5995	2089.695942907157	1
0	6000	2093.19370043346	2
0	6002	2093.64547532152	3
0	6003	2093.754641378816	2
0	6009	2095.746167022389	1
0	6014	2095.809319563124	0
0	6033	2099.081284764835	1
0	6039	2101.205248929945	2
0	6041	2102.425328422464	3
0	6043	2102.710972453549	4
0	6048	2104.057545278965	3
0	6055	2104.608579611466	2
0	6061	2106.242980101895	3
0	6067	2111.967133075411	4
0	6068	2112.454350377291	3
0	6073	2114.267134401672	2
0	6079	2115.619210964136	3
0	6080	2115.619915307046	2
0	6084	2115.755145950982	3
0	6089	2117.909476813576	4
0	6091	2118.821093749295	3
0	6097	2121.426215509075	2
0	6102	2121.617622464471	1
0	6109	2121.731551535943	2
0	6112	2122.885517481645	3
0	6113	2124.332290216546	2
0	6118	2124.654230387166	1
0	6124	2125.841987828982	0
0	6142	2133.982904639802	1
0	6144	2134.744641394648	2
0	6148	2135.279938633028	3
0	6150	2136.733501588347	4
0	6154	2139.686383203091	5
0	6155	2141.345969722762	4
0	6163	2142.478970606749	5
0	6164	2142.484948547996	4
0	6170	2142.689072741046	5
0	6172	2142.796678517337	4
0	6176	2142.941669442467	5
0	6180	2144.149966120961	4
0	6184	2144.627705755527	5
0	6187	2145.292394883686	4
0	6193	2149.416001817188	5
0	6194	2149.671143329411	4
0	6203	2150.741309887763	5
0	6206	2151.34244961355	4
0	6211	2152.32062571781	3
0	6215	2152.407479609968	4
0	6220	2156.487325199242	3
0	6226	2159.224284831802	4
0	6230	2159.757426072887	5
0	6232	2160.214118755234	6
0	6237	2161.834963294045	7
0	6240	2163.459589133975	8
0	6242	2165.83245767599	9
0	6244	2165.871603188578	10
0	6250	2170.908718598815	11
0	6252	2171.906265046757	12
0	6257	2173.416405149024	11
0	6262	2174.412957171265	10
0	6272	2176.345404019188	11
0	6275	2182.290872701005	10
0	6281	2183.591486136294	11
0	6284	2184.410709605968	12
0	6285	2185.378353042812	11
0	6294	2187.05209865305	12
0	6295	2187.12150824504	11
0	6300	2188.715418119606	10
0	6307	2193.783985486973	9
0	6316	2195.621249526638	10
0	6317	2195.762065761984	9
0	6324	2196.730414100678	10
0	6325	2198.585809271737	9
0	6331	2199.106689475237	8
0	6337	2203.416855662666	7
0	6343	2204.273793525806	8
0	6347	2208.035932801796	7
0	6356	2213.496438640268	8
0	6357	2214.306165384213	7
0	6362	2216.125181999551	6
0	6369	2217.436761406551	7
0	6371	2218.876147357462	6
0	6377	2219.634471930062	5
0	6392	2221.359726672286	6
0	6395	2222.800172166954	5
0	6405	2228.718949947244	4
0	6412	2230.082906411599	5
0	6413	2233.248312907098	4
0	6422	2237.467813787859	5
0	6424	2237.9527140637	6
0	6427	2239.422008242678	5
0	6433	2241.463450718097	4
0	6438	2243.18079795196	3
0	6444	2244.16113856838	4
0	6446	2244.996138133622	5
0	6447	2245.521021528518	4
0	6453	2248.940486080911	3
0	6461	2250.616319848641	2
0	6466	2250.856458339437	1
0	6473	2253.867954124385	0
0	6484	2256.886349425434	1
0	6487	2258.689884802044	2
0	6488	2260.316405517556	1
0	6493	2260.581256197927	0
0	6510	2263.315879976998	1
0	6511	2264.375224262754	0
0	6535	2272.290874079484	1
0	6538	2273.361776675486	0
0	6544	2273.754157749133	1
0	6545	2273.801181093594	0
0	6576	2284.591961630178	1
0	6578	2285.171285081457	2
0	6579	2286.380151553947	1
0	6585	2286.975103813699	0
0	6591	2289.019477576552	1
0	6594	2290.042322069126	2
0	6597	2290.903625762975	3
0	6599	2293.387093874286	4
0	6603	2298.381343795443	5
0	6605	2300.978577046035	6
0	6606	2302.569532501271	5
0	6614	2305.054018999303	4
0	6619	2305.217188786784	3
0	6626	2306.709238566508	2
0	6633	2312.234315219822	3
0	6634	2312.687598618513	2
0	6639	2315.096910500968	1
0	6644	2315.154573369133	0
0	6650	2317.765114753047	1
0	6652	2318.258437183575	2
0	6657	2322.140300994622	1
0	6666	2323.656603234442	0
0	6670	2324.264901769156	1
0	6672	2325.374173242853	2
0	6675	2327.957731293279	1
0	6680	2328.768591375445	0
0	6684	2328.898851260141	1
0	6686	2328.937074234702	2
0	6690	2332.315415448062	1
0	6696	2332.498745196217	2
0	6698	2333.86041598368	1
0	6704	2334.848859169729	2
0	6708	2336.403141742775	3
0	6710	2336.921955828491	4
0	6712	2338.928209289432	5
0	6713	2339.307410766972	4
0	6718	2342.264199798953	3
0	6723	2344.926484790237	2
0	6730	2348.454565033662	1
0	6737	2353.81696104383	0
0	6744	2357.470614508149	1
0	6745	2357.828214784626	0
0	6752	2359.651023501345	1
0	6753	2359.831207951338	0
0	6760	2361.726842990297	1
0	6762	2362.735858444391	2
0	6763	2362.954355160669	1
0	6772	2363.856810041978	2
0	6773	2364.148159227895	1
0	6781	2365.004447718912	2
0	6785	2367.172893459059	1
0	6792	2369.269918128871	2
0	6793	2370.108059092931	1
0	6800	2371.000550151078	2
0	6802	2373.401534562713	3
0	6806	2374.945401404663	4
0	6809	2375.809221866081	3
0	6815	2376.645262280954	4
0	6816	2380.389896690888	3
0	6823	2381.824212895078	2
0	6828	2382.895247207057	1
0	6840	2387.307755322112	2
0	6841	2388.236309942461	1
0	6847	2389.049936444068	2
0	6851	2391.390264944361	1
0	6856	2391.416399539776	0
0	6862	2392.525116293722	1
0	6865	2393.901322814804	2
0	6868	2394.686785859987	3
0	6870	2395.092300673982	4
0	6872	2395.683406157485	5
0	6874	2397.470606191511	6
0	6875	2399.458264385855	5
0	6880	2399.953322858098	4
0	6886	2400.324294153105	3
0	6891	2400.353723262058	2
0	6896	2403.295605616868	1
0	6901	2408.094598424179	0
0	6923	2412.132813904888	1
0	6930	2414.19593590029	2
0	6931	2415.739955622269	1
0	6937	2415.990927560879	0
0	6947	2417.80845585729	1
0	6950	2419.87805571176	0
0	6958	2422.326039482757	1
0	6961	2423.130577752668	0
0	6991	2442.323734905296	1
0	6993	2443.555471612264	2
0	6995	2443.795082888006	3
0	7001	2446.899442590914	4
0	7003	2448.239325136718	5
0	7005	2449.203999841913	6
0	7006	2450.767353391283	5
0	7011	2451.275078318393	4
0	7016	2452.063681249134	3
0	7023	2454.713079933763	2
0	7030	2457.116325992849	1
0	7034	2457.427649242372	2
0	7039	2461.607522542967	1
0	7044	2461.70805200839	0
0	7093	2487.709542705952	1
0	7097	2488.155686858921	2
0	7098	2489.38586826648	1
0	7106	2490.599538581686	0
0	7116	2491.315176914797	1
0	7119	2492.906594911316	0
0	7128	2493.264929432401	1
0	7135	2498.368244460283	0
0	7154	2503.606158859754	1
0	7159	2508.811766609342	2
0	7163	2511.624973559563	3
0	7164	2511.832601714128	2
0	7169	2512.13071031162	1
0	7176	2513.716858335197	0
0	7187	2515.625989086043	1
0	7189	2517.389439698308	0
0	7196	2521.874978364591	1
0	7200	2523.191162803746	0
0	7206	2523.2263364198	1
0	7207	2524.01066407275	0
0	7213	2526.468682555161	1
0	7214	2526.667013727593	0
0	7233	2531.249533278096	1
0	7241	2538.446512569982	0
0	7248	2539.626525937999	1
0	7249	2540.109289826752	0
0	7256	2542.279211920322	1
0	7258	2542.886486886908	0
0	7295	2555.03546880813	1
0	7298	2557.644661277331	0
0	7304	2557.658412712852	1
0	7305	2558.365273224877	0
0	7344	2566.085072498649	1
0	7347	2567.795397785713	0
0	7355	2570.109293275481	1
0	7358	2572.315727228856	2
0	7360	2573.235871267171	3
0	7361	2573.587214989443	2
0	7366	2574.676709491719	1
0	7371	2575.317319062777	0
0	7375	2577.048203786967	1
0	7381	2580.438220301181	2
0	7383	2582.381292573302	1
0	7389	2582.73860767975	0
0	7400	2583.474555746026	1
0	7401	2583.714231252905	0
0	7419	2594.445277907696	1
0	7423	2600.815599802561	2
0	7426	2604.319437361156	1
0	7433	2604.54570569489	2
0	7436	2605.566021879049	1
0	7445	2607.835436027578	2
0	7446	2608.014062539583	1
0	7452	2610.595595371558	2
0	7453	2610.799346268466	1
0	7459	2611.556322917912	2
0	7462	2612.895714702362	1
0	7468	2614.358060048247	2
0	7469	2615.124086045987	1
0	7475	2617.053802201145	0
0	7481	2617.103804198394	1
0	7484	2617.47263858972	2
0	7486	2618.665284299515	3
0	7487	2618.734992643105	2
0	7495	2619.835034247575	1
0	7501	2620.244763407097	2
0	7502	2620.465670816469	1
0	7509	2621.751475002662	0
0	7515	2627.765129140669	1
0	7516	2628.305216318659	0
0	7531	2631.293570105296	1
0	7532	2633.492294450468	0
0	7557	2638.962250084084	1
0	7559	2639.554318036931	2
0	7560	2642.511872784942	1
0	7565	2643.133663867918	0
0	7576	2643.810609729336	1
0	7578	2643.825453337597	2
0	7583	2645.306672844601	3
0	7584	2645.976591268296	2
0	7592	2646.489209949999	3
0	7593	2647.545878764579	2
0	7599	2647.93775338675	3
0	7602	2651.902854939449	2
0	7608	2652.673987968389	1
0	7614	2653.507282026011	0
0	7632	2662.521088141162	1
0	7640	2665.263051298505	2
0	7643	2667.735121093798	3
0	7644	2668.136476984153	2
0	7653	2672.203891955158	1
0	7658	2672.702149080077	0
0	7664	2673.207784404017	1
0	7668	2674.699454566397	2
0	7669	2674.705997354897	1
0	7674	2676.750822410212	0
0	7678	2678.443335124826	1
0	7684	2682.027711744805	2
0	7687	2683.73333102157	3
0	7690	2687.651593013528	2
0	7697	2689.111834049293	1
0	7703	2689.187363099865	2
0	7707	2691.220735931972	3
0	7709	2692.870716893309	2
0	7715	2693.667968317997	1
0	7722	2695.957903470326	0
0	7746	2702.229931351274	1
0	7747	2702.721032124097	0
0	7755	2703.273231576277	1
0	7757	2704.825568141999	2
0	7758	2705.263359889753	1
0	7764	2706.11093377329	0
0	7771	2707.27374171595	1
0	7774	2709.097012378898	0
0	7799	2720.107621683	1
0	7802	2721.852764179921	2
0	7803	2722.946094705614	1
0	7808	2723.835604377641	0
0	7816	2726.874305987321	1
0	7818	2728.109743089229	2
0	7819	2730.20170180107	1
0	7828	2732.850788878402	2
0	7830	2734.140181220668	3
0	7832	2735.315826345738	4
0	7836	2738.889450557535	5
0	7839	2739.588407762446	4
0	7844	2741.087813607972	3
0	7850	2741.297647480809	2
0	7857	2741.524653883426	3
0	7858	2741.537143449475	2
0	7865	2743.240781711699	1
0	7871	2744.088408056606	0
0	7877	2744.608173915476	1
0	7878	2745.159218751383	0
0	7886	2746.926624084749	1
0	7887	2749.158971456511	0
0	7911	2754.735810856649	1
0	7913	2757.972971445733	2
0	7916	2761.694684829135	1
0	7924	2762.374815704552	0
0	7943	2767.560704634205	1
0	7944	2768.026531023446	0
0	7955	2769.795214231599	1
0	7959	2770.755859209809	2
0	7960	2770.79665418774	1
0	7965	2771.702016795631	0
0	7971	2771.801968828617	1
0	7973	2772.822483539451	2
0	7975	2773.868681554736	1
0	7982	2775.508223647336	2
0	7984	2777.532027691755	1
0	7989	2778.996920169463	0
0	8000	2782.952100935606	1
0	8002	2783.297948449129	0
0	8008	2784.301462433432	1
0	8009	2785.080993790242	0
0	8018	2786.344893797056	1
0	8022	2789.512367520147	0
0	8049	2801.217153147482	1
0	8052	2803.073278170486	0
0	8061	2806.204437348329	1
0	8063	2807.992195878428	2
0	8065	2808.641944494902	3
0	8068	2810.034772677683	2
0	8074	2812.374501810611	1
0	8082	2816.067755583231	0
0	8090	2816.93336347094	1
0	8092	2817.649216435587	0
0	8110	2821.178156107816	1
0	8114	2825.7307262746	0
0	8121	2826.465286898178	1
0	8124	2827.442264877812	0
0	8130	2828.242905345971	1
0	8132	2829.224548754738	2
0	8137	2832.367454999206	3
0	8138	2834.097165914748	2
0	8144	2834.622395650991	3
0	8146	2835.042600653445	2
0	8152	2836.016752249557	1
0	8157	2836.221431528858	0
0	8169	2838.297916072625	1
0	8170	2838.657659068883	0
0	8213	2851.632616934068	1
0	8216	2852.246050656107	0
0	8222	2853.204520505013	1
0	8223	2855.330492251265	0
0	8249	2864.163525750163	1
0	8250	2864.674691076493	0
0	8257	2867.653022929907	1
0	8258	2867.734098651513	0
0	8264	2868.877786822361	1
0	8265	2868.882464835471	0
0	8272	2869.588776957867	1
0	8275	2874.637277559253	2
0	8277	2875.545503898883	3
0	8278	2875.719119591373	2
0	8288	2878.358287335256	3
0	8290	2878.674406780742	4
0	8294	2880.500022993148	5
0	8295	2881.909923763147	4
0	8300	2882.180307313615	3
0	8308	2884.222472482401	4
0	8311	2888.438608182881	5
0	8313	2888.617983777731	6
0	8316	2891.855011103317	5
0	8326	2896.744047904655	4
0	8332	2897.875413248457	3
0	8338	2898.839350480564	2
0	8343	2900.856060812055	1
0	8348	2900.858389425027	0
0	8360	2903.768512290338	1
0	8361	2906.645494625729	0
0	8373	2907.451779113271	1
0	8374	2907.478808101635	0
0	8392	2911.560071688426	1
0	8393	2911.995307314411	0
0	8399	2913.799921684829	1
0	8401	2913.801430375675	2
0	8402	2914.029783479329	1
0	8411	2916.074614563103	0
0	8422	2918.494666721536	1
0	8423	2919.338025825567	0
0	8435	2923.597881199533	1
0	8437	2924.55398402628	0
0	8444	2926.171901325197	1
0	8445	2926.560401328307	0
0	8458	2931.362764964438	1
0	8459	2934.820179612245	0
0	8471	2936.561286166657	1
0	8472	2937.011680091912	0
0	8511	2947.772063943397	1
0	8515	2947.820782080707	2
0	8517	2950.801728568417	3
0	8519	2954.417171036246	4
0	8520	2954.638436225657	3
0	8525	2955.298078127368	2
0	8530	2955.602938309105	1
0	8534	2957.116955010631	2
0	8538	2958.012520339034	3
0	8542	2958.915044459545	4
0	8543	2960.620767196562	3
0	8551	2966.302573902725	4
0	8557	2970.160163685945	5
0	8558	2970.585591235762	4
0	8564	2971.66102938256	3
0	8569	2973.59395133176	2
0	8576	2975.174780685948	3
0	8578	2975.503698156616	2
0	8585	2977.994373713865	1
0	8593	2980.35204362763	2
0	8595	2980.909139726038	3
0	8600	2982.50725007686	2
0	8605	2983.177410433901	1
0	8611	2984.876545228255	2
0	8616	2985.824356153185	1
0	8622	2987.792517098333	2
0	8623	2988.936410755919	1
0	8628	2991.447637615163	0
0	8639	2993.726738801876	1
0	8642	2995.63034483271	2
0	8646	2996.282132446101	1
0	8653	2998.577012511531	0
0	8660	3002.523130714838	1
0	8661	3003.767923076517	0
0	8676	3008.003440704608	1
0	8677	3010.51586468394	0
0	8684	3011.025450793924	1
0	8686	3014.078844560757	2
0	8688	3015.371698360334	3
0	8690	3015.630259841522	4
0	8691	3016.200710525688	3
0	8697	3017.885992247299	4
0	8698	3017.939841894878	3
0	8704	3019.680002528803	4
0	8708	3021.380112777332	3
0	8714	3022.372401294239	2
0	8720	3023.210470076406	3
0	8722	3025.29286914201	2
0	8729	3026.191684050016	3
0	8733	3028.853331636022	4
0	8734	3028.886134905979	3
0	8741	3029.204912561571	2
0	8747	3029.40295438374	3
0	8750	3030.626297757008	4
0	8752	3031.508380745414	5
0	8758	3035.388976000504	4
0	8763	3036.861113079868	3
0	8769	3038.363202715649	2
0	8774	3038.375665631994	1
0	8778	3039.578157565649	2
0	8785	3044.052274747886	1
0	8791	3045.742219436632	0
0	8813	3053.501619722809	1
0	8814	3055.073101967917	0
0	8844	3061.352856435423	1
0	8847	3063.904044406218	0
0	8853	3064.136784951467	1
0	8857	3064.723695757232	0
0	8870	3071.747497312818	1
0	8871	3072.576656521156	0
0	8877	3072.611992932657	1
0	8882	3075.075497503832	2
0	8884	3075.415764902174	3
0	8886	3077.070519955104	4
0	8887	3077.534187797318	3
0	8892	3077.54661131457	2
0	8897	3078.907408427288	1
0	8905	3079.792293323554	2
0	8908	3081.649525619288	1
0	8915	3087.522368168557	0
0	8922	3088.147022278011	1
0	8923	3089.849460732804	0
0	8945	3099.442473960329	1
0	8950	3102.073198949126	0
0	8959	3102.712531675946	1
0	8964	3109.670376967101	2
0	8965	3109.838172119655	1
0	8970	3111.477993872912	0
0	8976	3111.58501972548	1
0	8977	3112.046022508534	0
0	8984	3114.899435220119	1
0	8987	3118.115017235039	0
0	8993	3119.157466205206	1
0	8997	3120.856337362544	2
0	8998	3125.331451209149	1
0	9003	3125.626348587776	0
0	9019	3127.062688326391	1
0	9023	3129.125523006658	0
0	9080	3142.606359425467	1
0	9082	3146.386369835771	2
0	9085	3149.372604106989	1
0	9090	3149.45118851559	0
0	9104	3154.717779815563	1
0	9106	3155.094226507234	2
0	9107	3155.912723671197	1
0	9120	3160.200830928875	2
0	9121	3167.101329030785	1
0	9128	3169.026661658254	0
0	9139	3169.519196464616	1
0	9144	3171.801228200079	0
0	9161	3175.797447537465	1
0	9164	3178.693606648368	0
0	9185	3186.163222384105	1
0	9186	3186.606215735789	0
0	9192	3186.950864249514	1
0	9194	3187.807869510794	2
0	9196	3190.515208555701	1
0	9204	3193.651092882773	0
0	9217	3195.855510275056	1
0	9219	3196.268348857472	2
0	9221	3197.980828822934	3
0	9222	3198.700318099111	2
0	9230	3200.228556805366	1
0	9236	3201.984414069316	0
0	9253	3207.303785321358	1
0	9255	3207.473372495823	2
0	9261	3211.409196399645	3
0	9263	3211.861694456737	4
0	9264	3212.499174820127	3
0	9270	3214.826836342288	2
0	9275	3215.433443081354	1
0	9280	3215.442737878541	0
0	9293	3218.323318894613	1
0	9296	3218.991242945523	0
0	9305	3221.183640507677	1
0	9306	3223.027018437726	0
0	9315	3224.064606659401	1
0	9316	3224.17636486338	0
0	9328	3226.645152773948	1
0	9333	3232.958501081121	0
0	9349	3236.447548353825	1
0	9353	3237.303054475115	2
0	9356	3238.852621350518	1
0	9361	3239.019622565981	0
0	9372	3246.468444678496	1
0	9374	3247.053909359526	2
0	9375	3250.942369996926	1
0	9380	3251.543757133757	0
0	9395	3259.045127645453	1
0	9397	3261.216155690658	2
0	9398	3262.262214244119	1
0	9404	3262.330644734104	0
0	9415	3264.897487070317	1
0	9416	3265.037299469321	0
0	9425	3266.796377365368	1
0	9427	3268.865824398705	2
0	9432	3271.221455054462	3
0	9434	3272.516810232051	4
0	9436	3273.090934476125	5
0	9437	3274.938701883193	4
0	9443	3275.466723213834	3
0	9453	3277.92837666938	4
0	9454	3279.207498353598	3
0	9461	3280.222175600151	4
0	9463	3282.850478681792	5
0	9464	3282.871703110926	4
0	9470	3285.730491161042	3
0	9476	3286.56620951865	4
0	9479	3286.745989846473	5
0	9482	3288.352653160485	4
0	9488	3288.732810634904	5
0	9490	3290.198164495444	4
0	9496	3290.204269690722	5
0	9497	3290.929018245834	4
0	9503	3292.462018181939	3
0	9509	3294.453905334097	4
0	9511	3296.640241352658	3
0	9517	3297.234417667882	4
0	9521	3298.591415939331	3
0	9526	3299.707839709642	2
0	9531	3300.467209984886	1
0	9535	3300.987693996389	2
0	9539	3303.801579765735	1
0	9547	3304.687773337138	2
0	9551	3307.780683044596	3
0	9552	3309.748225990626	2
0	9559	3311.981798620172	1
0	9567	3313.501112385024	2
0	9569	3316.718888267708	3
0	9570	3317.461309464439	2
0	9578	3321.969848865786	1
0	9583	3322.708936420688	0
0	9596	3325.182624893519	1
0	9599	3327.673021343022	0
0	9605	3330.703413411762	1
0	9609	3333.625287877151	2
0	9610	3337.840192367717	1
0	9616	3340.361802877349	0
0	9632	3342.583145256607	1
0	9636	3346.515271818217	0
0	9642	3348.623485889151	1
0	9645	3349.079642224734	2
0	9647	3352.191798481978	3
0	9648	3353.114812344294	2
0	9653	3353.363029939724	1
0	9659	3355.94028752141	0
0	9663	3360.340292501197	1
0	9666	3361.242175350125	0
0	9679	3365.229139296421	1
0	9680	3365.343147442384	0
0	9684	3366.050712970387	1
0	9686	3367.69248404266	2
0	9689	3370.556105441746	1
0	9693	3371.409937478399	2
0	9697	3372.167593492077	3
0	9699	3373.213809986259	4
0	9703	3378.428453718703	3
0	9709	3379.297273180955	2
0	9715	3383.029820173059	1
0	9719	3383.814367537233	2
0	9722	3387.289717647043	1
0	9728	3388.267308655038	0
0	9749	3390.101931470221	1
0	9751	3390.806194813718	2
0	9756	3392.489408663265	1
0	9762	3394.793168447815	2
0	9765	3395.717814834358	3
0	9766	3395.746932767337	2
0	9774	3397.141998285908	3
0	9782	3398.61630042369	4
0	9783	3399.042778374109	3
0	9788	3399.112845057357	2
0	9796	3400.820851022684	3
0	9800	3405.621933682137	4
0	9801	3408.654988572426	3
0	9807	3409.129499857894	2
0	9815	3412.012777540257	1
0	9821	3412.016656387015	2
0	9823	3417.963761302205	1
0	9828	3418.879398767648	0
0	9837	3422.506260150845	1
0	9842	3427.89224924466	2
0	9844	3428.27384837484	3
0	9845	3428.608931380665	2
0	9850	3429.198080044476	1
0	9858	3430.083718801664	2
0	9859	3430.882574323891	1
0	9865	3431.594468852085	2
0	9866	3431.904506773647	1
0	9877	3437.779376932655	0
0	9892	3449.722447592952	1
0	9894	3451.242869371323	2
0	9895	3454.375433982498	1
0	9900	3454.403655743029	0
0	9916	3457.736250839401	1
0	9919	3458.412158084631	0
0	9928	3462.277174758975	1
0	9930	3463.425874650863	2
0	9936	3467.094267161081	3
0	9943	3471.060676911662	2
0	9951	3474.411354174058	1
0	9958	3474.64375724953	2
0	9960	3475.458405366346	3
0	9961	3476.876580449199	2
0	9967	3477.28120376594	3
0	9972	3479.97859908771	4
0	9973	3483.293452001213	3
0	9979	3485.425703296573	2
0	9984	3485.429338233497	1
0	9989	3486.338263879636	0
0	9993	3486.860798247891	1
0	9997	3487.568449957767	2
0	9999	3488.558307887321	1
0	10005	3489.94292824871	2
0	10008	3494.104404681978	1
0	10014	3495.557646116519	0
0	10041	3500.175478296735	1
0	10045	3500.836516108086	2
0	10047	3501.381617418112	3
0	10048	3503.198246835125	2
0	10054	3505.330234703613	3
0	10055	3505.541306380015	2
0	10065	3508.363469834366	3
0	10066	3509.035967101161	2
0	10072	3509.97828253591	3
0	10074	3510.149719997835	2
0	10079	3511.070773882391	1
0	10085	3513.860145684018	0
0	10108	3523.044111378457	1
0	10111	3526.059863238521	0
0	10123	3528.925553652843	1
0	10124	3529.560358840209	0
0	10146	3534.143888242182	1
0	10147	3534.612189633863	0
0	10176	3541.093599159769	1
0	10180	3544.557497902539	2
0	10181	3545.341780107499	1
0	10187	3548.318646878533	0
0	10193	3548.325472898636	1
0	10196	3551.304124784187	2
0	10197	3552.74921211591	1
0	10202	3552.937223058601	0
0	10233	3562.477886790763	1
0	10236	3564.454983037659	0
0	10243	3566.5785316442	1
0	10244	3566.878806603442	0
0	10275	3571.398567601714	1
0	10277	3573.31807629327	0
0	10283	3574.104484300364	1
0	10286	3574.5458546444	2
0	10288	3575.686518130095	1
0	10297	3578.458888898417	0
0	10322	3586.650966725525	1
0	10324	3587.23506522066	2
0	10326	3587.710185429256	3
0	10327	3587.825233738825	2
0	10333	3589.431983708465	1
0	10342	3590.646299884049	2
0	10343	3591.025813071234	1
0	10350	3592.158450137611	2
0	10351	3593.52224567701	1
0	10357	3596.073142746498	0
0	10368	3597.926718348132	1
0	10372	3601.089347819412	2
0	10373	3601.12623340247	1
0	10379	3601.688170596457	2
0	10381	3602.617939945611	3
0	10383	3602.914976554871	4
0	10388	3604.814437227921	5
0	10390	3604.910447558166	6
0	10392	3608.605748704624	5
0	10397	3608.670095311843	4
0	10402	3610.501086712992	3
0	10409	3612.349004074772	2
0	10420	3620.052875454161	1
0	10426	3620.809300078492	2
0	10429	3621.175563249165	1
0	10435	3622.462384610045	0
0	10453	3624.791281915963	1
0	10454	3626.172853508907	0
0	10466	3631.785371253554	1
0	10468	3632.288725338955	2
0	10471	3634.282521897121	1
0	10479	3635.528315218387	0
0	10500	3643.209942799679	1
0	10503	3644.937399424514	0
0	10510	3647.677593823261	1
0	10511	3647.691564409062	0
0	10520	3648.350447248595	1
0	10527	3653.464183920267	2
0	10528	3655.556177133193	1
0	10535	3656.718143293736	2
0	10536	3657.935061138395	1
0	10541	3658.478923846626	0
0	10548	3660.752729398596	1
0	10551	3662.91228824549	0
0	10560	3665.459407676983	1
0	10561	3666.61627097396	0
0	10569	3668.658731796727	1
0	10571	3671.461222863834	2
0	10572	3672.779457046757	1
0	10577	3673.114763545672	0
0	10597	3676.840406398506	1
0	10600	3677.412614727146	0
0	10634	3688.10974747921	1
0	10640	3693.156861151071	0
0	10648	3693.643780603005	1
0	10652	3694.891054624457	0
0	10693	3709.554923335907	1
0	10694	3709.856495013594	0
0	10701	3710.454885102951	1
0	10702	3710.889920192934	0
0	10709	3713.155192109934	1
0	10710	3714.860352517359	0
0	10717	3721.155898915572	1
0	10718	3721.333815443312	0
0	10725	3722.121789074273	1
0	10727	3723.456028291263	0
0	10753	3732.29368626416	1
0	10757	3735.26221053937	0
0	10780	3746.500573523168	1
0	10782	3747.572308307155	2
0	10785	3755.871590040525	1
0	10790	3756.519580047211	0
0	10808	3760.704551463387	1
0	10810	3760.748073074769	2
0	10812	3761.222552509383	3
0	10814	3761.227791020606	4
0	10817	3764.322368694039	3
0	10823	3765.081301622781	2
0	10830	3766.419634114968	3
0	10832	3766.842268942328	4
0	10833	3766.951157118134	3
0	10838	3767.407273117886	2
0	10845	3767.968194185811	1
0	10850	3768.199172825311	0
0	10868	3772.609925222683	1
0	10869	3775.706561911023	0
0	10878	3782.402046622375	1
0	10879	3783.444381434962	0
0	10899	3784.866694394129	1
0	10901	3784.977929188977	2
0	10905	3787.257548464241	1
0	10912	3788.720769569689	2
0	10916	3789.363169365913	1
0	10922	3789.44999841514	2
0	10923	3789.615808436825	1
0	10928	3791.4607086543	0
0	10977	3802.077868912069	1
0	10982	3804.711770576716	0
0	10999	3805.830814616103	1
0	11002	3806.357421887444	0
0	11008	3808.066098989815	1
0	11009	3809.049427320295	0
0	11020	3811.3349996712	1
0	11022	3811.46794151242	2
0	11024	3811.973419107407	3
0	11027	3812.970678492207	4
0	11028	3813.331342592492	3
0	11034	3814.427782724625	2
0	11040	3814.730304860723	3
0	11042	3815.890796263071	2
0	11048	3818.238665849856	3
0	11049	3819.484497281584	2
0	11057	3822.135190337746	3
0	11061	3822.699512543687	4
0	11062	3823.891468810452	3
0	11069	3826.392235774228	4
0	11071	3827.731861085527	5
0	11073	3829.440383479691	6
0	11074	3830.486734667389	5
0	11083	3835.245699381853	6
0	11085	3835.420343363489	5
0	11091	3836.113297502557	4
0	11098	3838.631097954891	5
0	11100	3838.797521143454	6
0	11101	3839.018070513059	5
0	11106	3841.239310396252	4
0	11112	3841.675929558562	5
0	11116	3843.60444131823	6
0	11118	3846.53985292191	7
0	11119	3847.062420007615	6
0	11124	3847.573665852215	5
0	11129	3847.598057681961	4
0	11133	3849.069999371471	5
0	11137	3852.864686359673	6
0	11140	3854.849272813636	5
0	11147	3856.883138086003	4
0	11153	3857.474664004561	3
0	11162	3858.068652159912	4
0	11163	3860.942331573556	3
0	11173	3863.138982112986	4
0	11176	3864.887681855149	3
0	11182	3866.473932499146	2
0	11187	3867.237446986937	1
0	11192	3870.914059837605	0
0	11205	3873.966502478858	1
0	11206	3874.377538254794	0
0	11225	3879.592799726129	1
0	11226	3879.859389920329	0
0	11236	3882.064077367822	1
0	11237	3882.209935640877	0
0	11243	3882.677076355315	1
0	11245	3885.276495906668	0
0	11252	3887.398829241289	1
0	11254	3891.126901947207	0
0	11267	3893.220107110349	1
0	11272	3901.441224906354	2
0	11273	3901.504288368192	1
0	11281	3902.40933233352	0
0	11290	3904.71855047747	1
0	11291	3905.357145117778	0
0	11301	3907.461976747326	1
0	11302	3910.89444550369	0
0	11315	3912.195346931836	1
0	11317	3912.591826004653	0
0	11330	3918.990315736819	1
0	11332	3921.355282805442	2
0	11335	3921.535843012931	1
0	11345	3922.780545230258	2
0	11346	3923.009302472646	1
0	11352	3923.171270398307	2
0	11356	3923.340998604418	3
0	11365	3932.248171516145	4
0	11368	3933.07823484257	3
0	11374	3934.223670973891	2
0	11379	3934.271501981391	1
0	11387	3934.949389936483	2
0	11392	3942.360749273037	1
0	11398	3944.385321954381	0
0	11411	3949.745296628702	1
0	11412	3950.838732970003	0
0	11423	3957.751691797867	1
0	11425	3957.806094669576	2
0	11427	3958.538854101704	3
0	11429	3959.555443807617	4
0	11431	3960.725642169435	5
0	11433	3960.793828060337	6
0	11434	3962.562698351355	5
0	11439	3962.788286139397	4
0	11445	3964.374323468348	3
0	11450	3966.021183169622	2
0	11457	3966.819981646528	1
0	11465	3968.106846509711	2
0	11469	3970.904390020997	1
0	11475	3973.394163526044	0
0	11482	3973.807461509874	1
0	11484	3976.402664547238	0
0	11500	3982.010180346303	1
0	11502	3983.490321070749	2
0	11505	3984.206838514879	1
0	11512	3986.590534198265	0
0	11529	3989.870624027013	1
0	11530	3991.913391089032	0
0	11561	4001.367921149006	1
0	11562	4004.022293226492	0
0	11570	4005.028576032546	1
0	11572	4005.770732668497	2
0	11574	4006.231106950894	3
0	11575	4009.373906536572	2
0	11581	4010.517841764351	1
0	11587	4011.390467281357	2
0	11588	4012.965920155801	1
0	11598	4016.936232787509	2
0	11600	4017.829286974926	3
0	11601	4017.963392338543	2
0	11608	4018.395668120412	3
0	11610	4021.590279788928	4
0	11614	4023.603405220697	5
0	11618	4025.725837538021	6
0	11619	4027.857929487014	5
0	11625	4028.046020576833	4
0	11631	4028.313247865923	3
0	11637	4029.064746653885	2
0	11647	4032.18420660303	3
0	11650	4032.847089507286	2
0	11656	4033.385252563815	1
0	11661	4033.498281847329	0
0	11685	4039.795658591127	1
0	11686	4039.804184400873	0
0	11698	4041.818295350774	1
0	11699	4043.843133913091	0
0	11711	4045.757291441755	1
0	11712	4045.914092416369	0
0	11721	4046.289288212472	1
0	11724	4048.696117404335	0
0	11736	4051.534450886349	1
0	11739	4053.314919030235	0
0	11749	4055.9274308189	1
0	11754	4057.763846196178	0
0	11760	4059.092752820014	1
0	11761	4060.37057671239	0
0	11781	4066.750733264241	1
0	11785	4068.712298507585	2
0	11786	4068.962499154964	1
0	11791	4069.085159000751	0
0	11798	4069.750681360523	1
0	11800	4071.586572918187	0
0	11807	4072.265121864734	1
0	11808	4074.771551860424	0
0	11830	4081.229418215541	1
0	11831	4081.931280617849	0
0	11842	4082.488734812051	1
0	11850	4087.111887639965	2
0	11852	4088.043688513025	3
0	11854	4090.243382675697	4
0	11857	4092.506512319636	3
0	11863	4093.410298078235	4
0	11868	4106.6771793643	3
0	11874	4109.284134979381	2
0	11879	4109.665900371901	1
0	11885	4109.928995226313	2
0	11887	4111.877765632692	3
0	11888	4112.174880848045	2
0	11893	4113.950410107079	1
0	11897	4115.697493209571	2
0	11900	4119.109502357477	1
0	11904	4120.112136347663	2
0	11906	4121.474990849677	3
0	11911	4123.600278145236	2
0	11919	4127.282142622979	3
0	11920	4128.998076442917	2
0	11925	4129.242804809111	1
0	11930	4129.832161049649	0
0	11953	4137.317778382837	1
0	11955	4138.089995836221	2
0	11957	4139.422487256484	3
0	11958	4139.705121948404	2
0	11964	4140.807057916863	3
0	11966	4141.47575462678	2
0	11975	4143.37712694276	1
0	11980	4143.539142783712	0
0	11986	4143.683589901144	1
0	11987	4143.770855864841	0
0	11991	4144.279987653731	1
0	11993	4144.64457010213	2
0	12003	4150.714717209976	3
0	12006	4153.082400771108	2
0	12012	4153.119987978653	3
0	12014	4153.862820004139	2
0	12021	4155.67339844966	1
0	12028	4159.42578808666	0
0	12032	4159.537504290863	1
0	12035	4162.131032251186	0
0	12041	4164.607164661404	1
0	12047	4167.959929883391	2
0	12049	4168.126273856014	3
0	12055	4170.342911433717	4
0	12056	4171.756520141066	3
0	12064	4173.936673591172	4
0	12066	4174.179202451136	5
0	12067	4175.407960900424	4
0	12075	4178.925049073048	5
0	12076	4179.424330962594	4
0	12082	4179.937812773929	3
0	12089	4180.901653690097	4
0	12090	4182.112619598482	3
0	12095	4182.273441709191	2
0	12102	4184.613092323619	1
0	12108	4187.746861988758	0
0	12116	4188.241022321009	1
0	12117	4189.263262124323	0
0	12136	4196.258080490242	1
0	12137	4196.340349470963	0
0	12143	4196.504488083714	1
0	12146	4197.372739474247	2
0	12147	4198.009779938427	1
0	12152	4198.551721404145	0
0	12165	4202.329203778585	1
0	12170	4205.399401905868	0
0	12180	4207.188137194715	1
0	12182	4208.044621752885	2
0	12184	4208.275054566301	1
0	12190	4209.545150201739	2
0	12191	4209.761243647872	1
0	12195	4209.894535483754	2
0	12198	4210.129069715297	1
0	12207	4213.304540013173	0
0	12235	4225.882196725468	1
0	12240	4229.693760269246	0
0	12249	4230.24322670528	1
0	12252	4230.779635024032	0
0	12263	4233.71046713104	1
0	12264	4233.745192263225	0
0	12273	4239.536902010504	1
0	12280	4240.531552893421	2
0	12284	4242.576209773801	1
0	12290	4243.057308262002	2
0	12292	4243.821253649883	1
0	12297	4243.825482983624	0
0	12303	4243.874569798679	1
0	12308	4249.210750696421	0
0	12316	4251.243540161006	1
0	12317	4251.988119704612	0
0	12323	4254.302633977055	1
0	12324	4254.700385763043	0
0	12338	4257.552195812934	1
0	12339	4258.538666623279	0
0	12350	4259.789053206345	1
0	12353	4263.905242577635	2
0	12355	4264.694147466847	3
0	12356	4265.571491209604	2
0	12363	4267.568023430912	1
0	12368	4269.080623084432	0
0	12372	4269.289009265296	1
0	12377	4270.507539480756	0
0	12394	4278.017098292718	1
0	12397	4278.945163519669	0
0	12403	4279.855935116369	1
0	12405	4280.123461352666	2
0	12407	4283.388504755194	1
0	12413	4284.160725461001	0
0	12430	4290.907683724055	1
0	12433	4292.969698373848	0
0	12439	4293.746617471464	1
0	12440	4296.338926971242	0
0	12450	4299.512073939744	1
0	12452	4300.014548297279	2
0	12455	4301.756832888519	1
0	12461	4303.087128283856	0
0	12473	4304.965203807064	1
0	12477	4308.545693946306	2
0	12478	4309.380397492923	1
0	12483	4309.481145884977	0
0	12489	4312.283394628203	1
0	12492	4314.855563148858	2
0	12494	4318.93899931827	1
0	12499	4319.83705225713	0
0	12507	4322.086238093672	1
0	12511	4325.000810223728	0
0	12518	4326.750950995457	1
0	12522	4328.160584152876	0
0	12541	4330.745913714685	1
0	12543	4330.880800177654	2
0	12545	4330.95712759251	3
0	12546	4331.448752895135	2
0	12554	4334.341059860394	3
0	12556	4335.826640357386	4
0	12557	4337.707734152807	3
0	12563	4340.46046794014	2
0	12568	4341.405122843999	1
0	12575	4342.296329042862	2
0	12577	4343.469632361991	1
0	12583	4344.950374492686	0
0	12589	4345.01467504087	1
0	12593	4345.811146078117	2
0	12594	4347.755337204419	1
0	12599	4347.892649296715	0
0	12603	4348.104684935806	1
0	12605	4348.433770716381	2
0	12611	4350.480452813645	3
0	12613	4350.748550267721	4
0	12616	4352.765186420173	3
0	12623	4355.393166215175	4
0	12624	4358.611783512579	3
0	12630	4363.10727136153	2
0	12635	4364.713469516962	1
0	12642	4365.929663787214	2
0	12643	4365.938003287145	1
0	12648	4368.497709613524	0
0	12652	4369.331458959643	1
0	12659	4375.893084090466	0
0	12678	4380.53866051053	1
0	12679	4381.863284418822	0
0	12692	4385.391638301315	1
0	12694	4387.240135063972	2
0	12695	4387.901350352215	1
0	12700	4388.204544068754	0
0	12704	4388.516961292539	1
0	12711	4390.487945153674	0
0	12726	4391.954531405355	1
0	12728	4392.488799344081	2
0	12730	4393.050643748562	3
0	12732	4393.079099046382	4
0	12735	4394.14327786123	3
0	12740	4394.829037889154	2
0	12747	4395.828651273941	1
0	12753	4398.479270748412	0
0	12764	4401.762896467296	1
0	12769	4404.499221116497	2
0	12771	4405.395688975526	3
0	12772	4408.281682000345	2
0	12778	4408.562105151685	3
0	12783	4411.372996465896	2
0	12789	4412.575248914094	1
0	12794	4412.580256106106	0
0	12800	4412.735314432618	1
0	12801	4413.309209765108	0
0	12805	4414.067474202533	1
0	12807	4414.918343325345	2
0	12809	4416.450963425298	3
0	12812	4417.438755195953	2
0	12818	4418.161620344709	3
0	12821	4419.042231655114	2
0	12828	4422.64136640323	3
0	12829	4422.703071683702	2
0	12835	4423.012115676162	3
0	12837	4423.652388150559	2
0	12842	4425.245929335571	1
0	12847	4426.662214447671	0
0	12853	4427.595071442492	1
0	12854	4427.855824204028	0
0	12862	4428.795356146594	1
0	12864	4429.248320282441	2
0	12867	4430.044017900548	1
0	12877	4433.025629173514	2
0	12878	4434.032325860209	1
0	12886	4442.410053850818	2
0	12887	4442.695834811796	1
0	12892	4442.725917485426	0
0	12904	4445.762300958498	1
0	12909	4447.490992285904	2
0	12910	4447.500585280039	1
0	12916	4448.563150316742	2
0	12917	4448.593657203267	1
0	12925	4451.727450477744	0
0	12933	4454.558757654774	1
0	12934	4454.985076387966	0
0	12940	4456.265525606181	1
0	12942	4456.421150355231	2
0	12946	4461.337406668416	3
0	12948	4462.06655458466	4
0	12949	4462.500586472259	3
0	12956	4465.819460811786	2
0	12965	4466.799118940527	3
0	12968	4467.58459529646	2
0	12973	4469.988016540001	1
0	12979	4471.346905664925	2
0	12980	4471.762661025751	1
0	12987	4474.602483403945	2
0	12989	4474.697231366216	3
0	12990	4475.069050045724	2
0	12997	4475.183095541664	3
0	13000	4477.050866626593	2
0	13005	4478.465435026553	1
0	13012	4485.54249689725	0
0	13042	4494.722667222905	1
0	13047	4497.410164713432	2
0	13048	4498.263866832533	1
0	13054	4499.405897690227	0
0	13066	4501.556734148513	1
0	13069	4503.440528941442	0
0	13076	4504.730139835488	1
0	13077	4504.842599037815	0
0	13099	4518.104688690424	1
0	13101	4519.431939622544	2
0	13104	4520.153679457547	1
0	13110	4521.817438142848	0
0	13122	4529.463236072858	1
0	13124	4530.654581671144	2
0	13130	4533.316499279326	3
0	13133	4534.842745844676	2
0	13138	4534.845644712825	1
0	13146	4538.460885057379	2
0	13148	4539.276322002156	3
0	13150	4539.473731814903	4
0	13151	4541.258749736013	3
0	13157	4542.220735423751	2
0	13164	4545.980811045473	1
0	13170	4546.135004850454	2
0	13171	4546.852033540722	1
0	13175	4548.91735479446	2
0	13180	4551.45734037184	3
0	13182	4552.265572221764	2
0	13187	4552.539417695625	1
0	13192	4553.012489933715	0
0	13208	4563.052160863806	1
0	13212	4565.595332437623	2
0	13213	4565.817410682725	1
0	13221	4568.232909361348	0
0	13243	4573.055215715898	1
0	13248	4577.461866744184	0
0	13266	4583.869215368839	1
0	13267	4584.524499200127	0
0	13276	4586.010215999397	1
0	13278	4586.556937736421	2
0	13284	4587.89941087301	1
0	13298	4592.594118448666	0
0	13316	4600.245706195069	1
0	13317	4601.013944061691	0
0	13340	4611.239500954156	1
0	13341	4611.782169642326	0
0	13348	4612.410246413733	1
0	13350	4612.722921775021	2
0	13351	4615.676006598069	1
0	13356	4615.94287767157	0
0	13368	4620.159462212451	1
0	13371	4621.356921669472	0
0	13390	4625.907256133294	1
0	13391	4626.453913159758	0
0	13398	4627.991579051644	1
0	13399	4629.078156740961	0
0	13412	4631.617250979339	1
0	13413	4632.263459564881	0
0	13420	4632.991040805563	1
0	13421	4633.65638040616	0
0	13428	4634.197562311463	1
0	13429	4635.26148594152	0
0	13451	4641.058780435953	1
0	13454	4642.007772857416	0
0	13465	4645.359110833108	1
0	13467	4646.6161096271	2
0	13468	4650.296665733611	1
0	13473	4651.308988032109	0
0	13481	4652.483903806924	1
0	13482	4654.237649635545	0
0	13498	4656.948611648469	1
0	13499	4657.261856565963	0
0	13512	4663.80950175867	1
0	13515	4664.484561661947	0
0	13519	4664.957211226706	1
0	13522	4665.439303893015	0
0	13526	4666.099293728641	1
0	13532	4668.275987215239	0
0	13538	4671.276166138214	1
0	13539	4671.920505301521	0
0	13564	4683.300770390646	1
0	13566	4683.472132859907	2
0	13570	4686.425155840427	3
0	13577	4689.340748475966	2
0	13583	4690.538892293264	1
0	13592	4692.974932889701	2
0	13596	4694.196905842633	3
0	13598	4696.811021682053	4
0	13599	4697.516365417543	3
0	13604	4697.720549872204	2
0	13609	4698.452228886898	1
0	13617	4700.051202953794	2
0	13618	4700.8184529355	1
0	13624	4701.596416302557	2
0	13625	4702.202687144608	1
0	13633	4703.124933796442	0
0	13646	4707.316038028742	1
0	13648	4707.812545420368	2
0	13650	4709.691381645535	1
0	13657	4710.245126521687	0
0	13674	4712.704747741665	1
0	13676	4715.071011377207	0
0	13685	4716.140556541087	1
0	13689	4717.905494799479	2
0	13691	4719.363578874182	1
0	13696	4719.619959836286	0
0	13709	4723.501892089505	1
0	13712	4724.560795831315	2
0	13713	4724.920619241149	1
0	13722	4729.176083731603	2
0	13723	4729.628517005243	1
0	13729	4729.890600136562	2
0	13732	4731.14899451544	3
0	13736	4733.809464124877	4
0	13737	4737.004342425082	3
0	13745	4740.106074298031	4
0	13746	4743.88307841976	3
0	13752	4744.720792548131	2
0	13757	4744.732234665609	1
0	13763	4745.349151454556	2
0	13764	4746.301831313375	1
0	13769	4746.460984045353	0
0	13780	4748.800651088205	1
0	13781	4749.465305677954	0
0	13793	4751.21478573634	1
0	13795	4752.95691371491	0
0	13801	4753.045092002048	1
0	13804	4754.130378846532	0
0	13818	4757.29469286065	1
0	13819	4757.826593479035	0
0	13838	4760.497093763664	1
0	13842	4763.459994572903	2
0	13847	4767.779666976045	1
0	13854	4769.077881509081	0
0	13862	4770.558121665823	1
0	13863	4771.643466512208	0
0	13888	4780.192164486	1
0	13889	4780.254246264161	0
0	13906	4785.88950536588	1
0	13907	4786.767546396187	0
0	13921	4789.676682082955	1
0	13924	4791.489664748626	2
0	13926	4792.493966204636	3
0	13928	4792.516766875068	4
0	13929	4797.01864953025	3
0	13935	4798.092684195658	2
0	13941	4798.120911015616	3
0	13943	4798.907959732935	4
0	13945	4800.185634218642	5
0	13948	4801.527552886876	6
0	13949	4802.63943370916	5
0	13958	4807.77980710089	4
0	13962	4808.3913127279	5
0	13969	4809.447781060594	6
0	13976	4813.207441330469	7
0	13977	4814.63707885566	6
0	13986	4816.776594601381	7
0	13990	4819.081465217033	8
0	13991	4820.404929002967	7
0	13998	4822.484383803679	6
0	14003	4822.489883392111	5
0	14007	4822.947568489437	6
0	14012	4823.874650773383	7
0	14015	4825.521987037596	8
0	14016	4825.768203368358	7
0	14022	4826.130668763921	6
0	14027	4827.204475191466	5
0	14039	4833.734790869734	4
0	14046	4834.62204547118	3
0	14053	4837.680268636814	4
0	14054	4840.512085395638	3
0	14061	4841.432289537757	2
0	14071	4842.33311737126	3
0	14072	4843.604523439604	2
0	14078	4846.335612842905	3
0	14079	4846.939537524934	2
0	14085	4852.133797821179	1
0	14090	4852.643956486509	0
0	14098	4860.383170286917	1
0	14099	4860.443653587881	0
0	14105	4861.713868194664	1
0	14107	4861.903322471946	2
0	14110	4862.395208930043	3
0	14111	4862.84323300037	2
0	14116	4866.768808305484	1
0	14124	4868.750130595852	2
0	14126	4869.049200445868	3
0	14128	4870.147923081455	4
0	14130	4870.57434759143	5
0	14131	4871.222029696648	4
0	14138	4873.511554288349	5
0	14139	4873.653331371809	4
0	14144	4874.331801519193	3
0	14151	4874.909264222114	4
0	14153	4875.74381730616	3
0	14159	4876.141816649099	4
0	14162	4878.518176949955	3
0	14167	4878.6710016129	2
0	14175	4880.28091790373	3
0	14178	4882.201428368018	2
0	14187	4885.761152566845	1
0	14192	4886.356003100622	0
0	14215	4891.315157876311	1
0	14216	4893.014749957208	0
0	14230	4898.36836850666	1
0	14234	4899.625032626635	2
0	14236	4900.050193191423	3
0	14238	4900.886535839572	4
0	14239	4901.84592125431	3
0	14246	4906.207656684344	2
0	14255	4909.158272834719	1
0	14262	4910.46946527987	2
0	14264	4910.889753014087	3
0	14268	4911.333648151325	4
0	14270	4911.562628109431	5
0	14271	4912.223108197147	4
0	14277	4912.715332919297	5
0	14278	4913.20974158932	4
0	14283	4914.47732274033	3
0	14292	4916.815664211181	2
0	14298	4917.035391743872	3
0	14301	4920.982638889324	2
0	14308	4922.402892812769	1
0	14316	4924.201495235268	2
0	14317	4927.005449972808	1
0	14322	4927.370192854318	0
0	14333	4927.924228907957	1
0	14338	4928.690109607519	2
0	14339	4929.215788556039	1
0	14349	4931.098708291971	2
0	14350	4932.051361467309	1
0	14359	4936.454706845056	0
0	14378	4939.797191121263	1
0	14379	4941.502420722915	0
0	14388	4943.908709709454	1
0	14395	4949.922195611833	0
0	14404	4950.684749577495	1
0	14410	4953.880116549059	0
0	14439	4959.718387228795	1
0	14440	4960.694682577433	0
0	14446	4961.573686859323	1
0	14447	4961.818028352601	0
0	14458	4964.129969325916	1
0	14463	4968.351925502543	0
0	14469	4969.542160616699	1
0	14471	4971.070988420773	0
0	14479	4974.576875189755	1
0	14480	4974.740105103714	0
0	14503	4977.699766481892	1
0	14509	4979.826867784039	0
0	14520	4983.185774830765	1
0	14522	4983.668160785989	2
0	14524	4984.252271907077	1
0	14530	4984.480895847106	2
0	14535	4988.469271784978	3
0	14536	4988.61483401683	2
0	14541	4988.637947814959	1
0	14546	4989.219766171874	0
0	14552	4993.638455883938	1
0	14554	4993.920698222313	2
0	14558	4994.994245686396	3
0	14561	4996.504686426891	4
0	14563	4997.265048313536	3
0	14568	4997.409227397984	2
0	14573	4997.72978696879	1
0	14577	5001.858785015297	2
0	14581	5005.520990595613	3
0	14584	5006.57136917171	2
0	14592	5009.365151229045	1
0	14597	5010.521998439071	0
0	14626	5025.051087607035	1
0	14627	5026.039701957626	0
0	14646	5027.561841821688	1
0	14650	5031.404217957939	0
0	14656	5031.545418040716	1
0	14659	5033.774302569848	0
0	14667	5034.265894209324	1
0	14670	5038.297645689487	0
0	14682	5039.896258227732	1
0	14683	5039.935440450029	0
0	14692	5041.660925273936	1
0	14694	5042.43789013797	2
0	14696	5044.131795905343	3
0	14700	5045.828132571486	2
0	14706	5047.464627957216	1
0	14713	5048.104565216937	2
0	14714	5048.361038990927	1
0	14719	5048.581015822737	0
0	14734	5050.463652972548	1
0	14736	5050.874661170046	2
0	14741	5053.554150502676	1
0	14747	5053.954037604188	2
0	14753	5056.704360673376	1
0	14760	5059.105809003309	0
0	14775	5062.144841634608	1
0	14778	5063.963381132844	0
0	14787	5065.459527347838	1
0	14791	5066.867767066211	2
0	14792	5067.495429297364	1
0	14801	5069.131115651114	2
0	14802	5069.740067975374	1
0	14809	5070.811015594125	2
0	14812	5072.35764141911	3
0	14815	5075.966815768571	2
0	14822	5079.8767183421	1
0	14829	5082.347797790968	0
0	14835	5083.40746661376	1
0	14836	5085.22417715672	0
0	14843	5085.89041760488	1
0	14846	5086.350984942658	2
0	14847	5086.922281286257	1
0	14853	5087.168483526541	2
0	14856	5090.806877815111	1
0	14865	5093.879084096506	0
0	14869	5094.137458860797	1
0	14871	5097.909289117382	2
0	14876	5101.678826338548	1
0	14882	5102.196964012182	2
0	14884	5102.412675589354	3
0	14885	5102.476434189343	2
0	14891	5102.874232867536	1
0	14896	5103.94928113871	0
0	14946	5127.405927350434	1
0	14948	5127.705942225485	2
0	14954	5131.391352937516	1
0	14960	5131.986230383614	2
0	14964	5132.685565876015	3
0	14966	5132.812129900861	4
0	14967	5133.328636017457	3
0	14975	5134.30234902775	2
0	14981	5135.102152739188	1
0	14987	5135.70081339977	2
0	14990	5137.799619671755	1
0	14994	5139.020300182868	2
0	14996	5139.260158939285	3
0	14998	5139.480580045522	4
0	15000	5139.626945016484	5
0	15004	5140.712237349889	6
0	15006	5140.851808468899	7
0	15008	5140.889185915166	8
0	15010	5141.833926622116	9
0	15011	5142.089302108415	8
0	15018	5144.221667515569	9
0	15020	5145.796815709315	8
0	15025	5146.135559915774	7
0	15030	5147.014876922521	6
0	15038	5149.551079033326	7
0	15042	5151.528926866304	6
0	15047	5152.444470226009	5
0	15051	5153.16928214377	6
0	15057	5158.100388262659	7
0	15061	5159.618834691255	8
0	15066	5162.246112106327	7
0	15072	5163.583811708124	6
0	15077	5163.640152994642	5
0	15082	5165.972658052368	4
0	15088	5170.571244926182	3
0	15095	5171.241215110203	2
0	15102	5179.543142254473	3
0	15104	5180.887921799082	4
0	15105	5183.051538345027	3
0	15110	5185.145841068938	2
0	15117	5185.655005303926	1
0	15122	5186.021735946709	0
0	15143	5192.548715944862	1
0	15144	5192.926753428948	0
0	15155	5193.28575968253	1
0	15156	5193.616192762275	0
0	15171	5195.4860243649	1
0	15173	5196.310780941111	2
0	15175	5197.656095296506	3
0	15177	5197.870714170696	4
0	15180	5201.045621105316	3
0	15186	5202.772007060149	2
0	15191	5202.78196092519	1
0	15198	5203.593667517114	0
0	15219	5209.755921192645	1
0	15220	5210.667883128194	0
0	15226	5210.853370894121	1
0	15229	5212.632860296412	0
0	15246	5216.354892648656	1
0	15249	5219.272707917327	2
0	15252	5221.385567931336	1
0	15258	5223.539683765115	0
0	15267	5227.099189736747	1
0	15270	5227.902309337326	0
0	15299	5236.427209205991	1
0	15303	5242.723405436081	2
0	15307	5244.026252265045	1
0	15314	5245.199467862636	0
0	15328	5248.144793066819	1
0	15331	5249.196871792142	0
0	15342	5252.276230236471	1
0	15344	5254.5547903574	2
0	15353	5266.754403857691	1
0	15359	5268.223294729181	0
0	15382	5280.715310609624	1
0	15385	5281.624535097661	0
0	15391	5281.956759373554	1
0	15394	5283.191687984243	2
0	15395	5284.302003819866	1
0	15402	5285.3769497254	2
0	15404	5287.374877910762	1
0	15411	5288.967251656098	2
0	15412	5291.800098356068	1
0	15417	5291.808348556057	0
0	15424	5294.026970871264	1
0	15428	5295.742648188465	2
0	15429	5295.809826772676	1
0	15437	5298.719070996844	0
0	15450	5299.2104043615	1
0	15452	5299.837065699254	0
0	15463	5300.246135000094	1
0	15464	5301.648835776568	0
0	15478	5305.295602398798	1
0	15482	5306.374825201197	2
0	15487	5307.762158312876	1
0	15492	5308.687035621053	0
0	15515	5315.988129816483	1
0	15518	5317.459852245257	2
0	15519	5318.392507075084	1
0	15524	5318.732180844008	0
0	15535	5323.13615627212	1
0	15537	5324.22227410643	2
0	15541	5327.954856600428	3
0	15552	5331.549501479299	2
0	15558	5334.027401941509	1
0	15567	5335.477056788473	2
0	15569	5336.414067463133	1
0	15574	5337.278696103449	0
0	15593	5344.819283897579	1
0	15594	5345.554518657784	0
0	15609	5347.602203673873	1
0	15610	5348.182851623402	0
0	15616	5349.218322923676	1
0	15620	5352.36154035982	2
0	15622	5352.655045993401	3
0	15623	5352.677916065425	2
0	15628	5353.09140418505	1
0	15633	5353.403152840482	0
0	15645	5356.041902887079	1
0	15646	5356.447937105611	0
0	15669	5363.961381836406	1
0	15670	5364.841447013137	0
0	15692	5371.585995530937	1
0	15696	5372.527935217167	2
0	15697	5373.66432341636	1
0	15703	5376.901930973418	2
0	15704	5376.905792996218	1
0	15711	5378.280963102018	0
0	15724	5379.896462731829	1
0	15726	5380.074500205743	2
0	15729	5380.82528428799	1
0	15735	5380.866915187195	2
0	15736	5382.208403122354	1
0	15742	5382.497660681676	0
0	15755	5385.057855471351	1
0	15756	5386.13062917591	0
0	15762	5386.320693848306	1
0	15767	5386.490125350859	2
0	15769	5390.363786466689	3
0	15770	5392.697038391186	2
0	15776	5395.616330200147	1
0	15782	5395.63077721619	2
0	15784	5397.277477726594	3
0	15786	5397.661232673904	4
0	15789	5398.730473134703	5
0	15792	5400.801832163133	4
0	15798	5401.654584003146	5
0	15800	5402.311120321039	6
0	15802	5402.556391519399	7
0	15804	5404.228121625466	6
0	15811	5406.730808997675	5
0	15818	5408.825599246685	4
0	15823	5409.254065446492	3
0	15829	5410.669122375742	4
0	15832	5411.830035385755	3
0	15837	5412.600035818393	2
0	15846	5417.654596647743	1
0	15854	5423.207821367463	0
0	15882	5427.882456229223	1
0	15885	5428.804626315687	0
0	15892	5429.229366666361	1
0	15893	5430.371481852376	0
0	15899	5431.631565898433	1
0	15901	5431.755991620324	2
0	15902	5432.79069798732	1
0	15908	5433.404001748499	0
0	15917	5435.048101524654	1
0	15919	5437.290618317237	0
0	15941	5447.741217415928	1
0	15944	5448.331329312105	0
0	15953	5449.437993101286	1
0	15955	5451.058735306201	2
0	15968	5459.594768371243	3
0	15969	5463.014248084549	2
0	15975	5464.7913748029	1
0	15980	5465.894844937618	0
0	15992	5471.715857479541	1
0	15993	5472.385130102315	0
0	16005	5475.966579164101	1
0	16006	5476.955408805517	0
0	16017	5478.124488079052	1
0	16018	5478.463321117167	0
0	16031	5482.280928210549	1
0	16034	5485.630572031177	0
0	16040	5485.849455899606	1
0	16041	5486.068633798128	0
0	16047	5486.170981657146	1
0	16049	5487.851990120769	2
0	16050	5488.539822824987	1
0	16056	5490.389642837645	2
0	16059	5492.296880085946	1
0	16066	5495.802113713691	2
0	16067	5496.198548200018	1
0	16074	5497.746417159367	2
0	16076	5499.149038771715	1
0	16085	5500.647636395925	0
0	16091	5501.046824701314	1
0	16096	5504.238979309615	2
0	16097	5504.883518634442	1
0	16104	5507.156989206251	2
0	16106	5509.160090020483	3
0	16107	5509.223552114285	2
0	16115	5512.214571930031	1
0	16122	5514.115827124259	2
0	16124	5515.893250442425	3
0	16125	5516.097316306862	2
0	16130	5516.251364208358	1
0	16134	5516.736573926293	2
0	16136	5517.613419614286	3
0	16141	5519.297561987916	2
0	16149	5523.38389830167	1
0	16154	5524.8962149812	0
0	16161	5525.621980240478	1
0	16167	5535.874793736114	0
0	16180	5541.490131750736	1
0	16182	5544.373639619115	2
0	16183	5549.180679037975	1
0	16189	5552.083629062448	0
0	16203	5554.643360777974	1
0	16206	5558.912510079194	0
0	16212	5559.609150191043	1
0	16216	5560.974480235965	0
0	16234	5568.054423899192	1
0	16236	5569.202370743163	2
0	16238	5569.512870473239	3
0	16239	5570.525746773808	2
0	16245	5570.946183038919	3
0	16247	5573.32630020022	4
0	16251	5574.996205536888	3
0	16256	5576.010392986461	2
0	16262	5576.642936778837	3
0	16265	5578.384477616648	2
0	16270	5578.398581041637	1
0	16277	5579.24398385223	2
0	16279	5579.583889264766	3
0	16281	5580.116379097233	2
0	16288	5581.262520834498	1
0	16295	5582.835154653529	2
0	16297	5583.010824216789	3
0	16299	5584.338942217503	4
0	16300	5584.931168698849	3
0	16307	5585.421703528507	4
0	16309	5585.453509269353	5
0	16314	5595.312782714797	6
0	16315	5597.083616900543	5
0	16321	5598.072309858778	6
0	16322	5599.181196068715	5
0	16328	5599.190397831757	6
0	16329	5599.279097116741	5
0	16335	5600.70296531277	6
0	16337	5600.985914961989	7
0	16339	5601.742119510866	8
0	16342	5606.476868885228	7
0	16347	5606.692913961816	6
0	16352	5607.36087525186	5
0	16358	5608.601675753249	6
0	16365	5610.936458945781	5
0	16371	5611.182269429199	6
0	16372	5611.81162691722	5
0	16377	5611.824556654016	4
0	16384	5612.96039340711	3
0	16390	5616.651585288063	4
0	16396	5619.928494407409	3
0	16403	5623.014505670167	2
0	16409	5623.464775318593	1
0	16416	5624.131897176111	2
0	16419	5625.444299737388	1
0	16424	5625.521577961887	0
0	16431	5627.432362497029	1
0	16432	5628.870352353933	0
0	16439	5629.098164667969	1
0	16440	5629.174107263731	0
0	16460	5634.017356406122	1
[...]
4	72799	25366.704364898059	9211.0203952563
4	72808	25368.515578493731	9206.0036565258
4	72845	25376.214406498676	9209.7076162938
4	72859	25378.390251042993	9209.0972032197
4	72902	25393.948080550515	9223.0418196344
4	72926	25399.523666517664	9226.5109379804
4	72934	25403.074981195968	9221.2880681544
4	72954	25416.889243041541	9234.2650238033
4	73042	25443.424484111336	9255.8285790501
4	73053	25445.135916871838	9246.708657273
4	73058	25446.78540566977	9239.1607508007
4	73065	25449.821529747008	9234.4491829269
4	73079	25454.080295793107	9235.6407689411
4	73101	25461.539468633216	9235.6152227789
4	73352	25548.242669460538	9316.5940180682
4	73365	25550.971130684176	9310.7729728984
4	73394	25560.727492516105	9319.7186118536
4	73475	25585.431771799505	9330.5681919015
4	73486	25590.458894750341	9329.6640530714
4	73493	25590.775343553958	9326.8551716279
4	73506	25592.660246121802	9319.3248745706
4	73769	25701.264682442159	9418.1422890854
4	73778	25704.66637344683	9419.9248452611
4	73795	25714.185989365058	9423.3487215104
4	74103	25829.49935384629	9538.1357446952
4	74108	25830.092938222596	9535.1971240964
4	74113	25832.771460232126	9523.3500311864
4	74124	25841.40623840497	9528.8290835715
4	74229	25879.022152915757	9566.1973067153
4	74234	25879.099794711307	9541.0976871125
4	74240	25880.891374898912	9542.7783545409
4	74248	25883.243825490594	9534.7388959063
4	74258	25885.529893738805	9535.4206395439
4	74272	25890.952593935165	9540.2152642822
4	74278	25891.329703613485	9524.7536458308
4	74295	25899.141242931596	9508.8842280732
4	74380	25921.721459582826	9516.6542274216
4	74395	25928.520787063914	9507.5246196531
4	74440	25940.488371058225	9519.1590307308
4	74460	25946.768966071785	9524.4207611736
4	74493	25968.567487207255	9544.1227791587
4	74528	25987.657167214817	9559.5754806086
4	74579	26002.963185806234	9573.793481096
4	74625	26019.250223740092	9579.58716789
4	74630	26024.974443729597	9575.3052185013
4	74639	26031.240545539512	9556.8166604779
4	74709	26050.015116139719	9575.3976578484
4	74724	26059.321639827993	9581.5627544378
4	74733	26061.581589710539	9573.8805594349
4	74755	26070.083006355547	9576.3537274957
4	74768	26075.536804232331	9572.9257682697
4	74773	26076.068155705558	9567.3745257571
4	74782	26083.037959189475	9572.3506629832
4	74805	26089.846343438046	9573.7011661469
4	74826	26095.97483333767	9579.6368836957
4	74843	26099.533527515046	9575.2558775372
4	74850	26101.094085870653	9574.159711143
4	74881	26115.250270432347	9581.27299064
4	74913	26123.684612820661	9582.9767407487
4	74920	26124.861276963306	9582.2738106645
4	74932	26129.271493450089	9567.716251878
4	74941	26133.522353260835	9570.7095304153
4	74975	26144.76618547754	9580.8264633713
4	74987	26147.331861439843	9577.8198318574
4	74992	26149.110837324352	9574.5998655053
4	75001	26153.163526887203	9574.2561539577
4	75029	26170.865833853229	9589.5835603608
4	75040	26174.391978670817	9583.673373549
4	75199	26229.924414254196	9634.4748546475
4	75214	26234.836603406212	9637.5545696164
4	75297	26265.058944661735	9666.0126104046
4	75302	26265.616496918472	9666.4874034558
4	75313	26274.238494637907	9671.6629288762
4	75371	26290.028381849703	9683.554506798
4	75389	26297.748031828971	9688.8635931754
4	75408	26307.856309958675	9693.298962368
4	75445	26316.91361304943	9696.6415615127
4	75706	26395.641399358274	9774.6606825865
4	75711	26395.954186395205	9773.8986316781
4	75727	26408.96131981616	9760.877379093
4	75739	26411.99093263769	9758.7114143893
4	75761	26418.501182637069	9762.9577973239
4	75864	26459.31128945754	9792.2135342185
4	75873	26465.816473125744	9794.9192473102
4	76139	26551.259486561482	9876.335870719
4	76144	26551.935900563395	9874.4764518629
4	76150	26552.506123965411	9872.4815077668
4	76155	26554.039716653045	9872.3232650451
4	76167	26560.381793092477	9854.74953468
4	76186	26564.77475853739	9852.9753337927
4	76197	26566.996780444035	9843.9496545526
4	76260	26587.786262935992	9859.9625743404
4	76315	26609.350189464805	9867.6024346369
4	76320	26610.922136525474	9862.1556457061
4	76331	26614.286033692066	9865.3559149207
4	76362	26625.165891308748	9875.6725139461
4	76371	26630.396625835516	9879.7511360246
4	76696	26754.360900234617	9987.9461739123
4	76701	26757.410559309682	9988.9932691838
4	76710	26762.433079333986	9990.4902361975
4	76734	26768.911112286247	9995.033220682
4	76860	26813.448131243069	10036.18483603
4	76881	26817.087576801515	10039.395855883
4	76892	26820.246305709663	10041.543945954
4	77047	26855.967113897787	10077.235133475
4	77154	26891.730850556544	10109.673132299
4	77160	26892.615738709307	10107.81509536
4	77165	26893.361161998034	10097.527588934
4	77178	26897.327565146526	10100.594593066
4	77204	26901.259507778562	10102.120461957
4	77215	26904.96890562399	10103.230097299
4	77220	26907.274673590232	10102.411394413
4	77225	26908.794078940378	10092.922614555
4	77230	26916.344438961167	10094.738500487
4	77238	26920.082957905955	10094.09996599
4	77268	26933.646315719168	10105.260699038
4	77294	26940.647455506412	10111.872534051
4	77299	26940.927371744413	10108.693206485
4	77304	26941.441346791823	10093.216452536
4	77314	26944.874280385749	10095.491619279
4	77378	26958.225370696426	10103.732527251
4	77392	26962.780178869965	10106.37344417
4	77412	26971.79352764577	10113.199652665
4	77418	26972.75941933543	10111.290227126
4	77423	26973.664502479398	10104.072815189
4	77429	26974.937509528782	10104.50686876
4	77440	26975.763699060346	10104.528721964
4	77507	26999.321336287308	10122.611256743
4	77573	27028.836848305342	10151.543957071
4	77586	27034.310482391711	10156.308731083
4	77591	27034.624791528991	10149.123542649
4	77600	27040.07289719806	10148.845410562
4	77609	27043.937516236704	10145.756941431
4	77659	27059.883199258509	10147.530082579
4	77697	27076.731510511873	10162.189685074
4	77702	27077.283730933358	10141.269054096
4	77709	27079.950029264839	10139.816624938
4	77721	27083.534697293766	10139.544949962
4	77726	27085.09358834509	10140.032126762
4	77737	27089.5704883797	10138.146185413
4	77777	27101.244121436968	10147.492462339
4	77785	27104.877487521775	10145.934979313
4	77796	27112.283420751351	10129.022718387
4	77803	27114.935499061856	10130.744496768
4	77824	27122.579506251358	10121.160794868
4	77879	27144.148453970735	10132.357606917
4	77910	27150.570558789783	10133.047695001
4	77931	27158.859729423046	10140.699019603
4	77949	27162.246934404794	10135.88509132
4	78052	27198.126510820355	10164.081454844
4	78057	27198.477669376161	10159.773510138
4	78062	27199.312203125949	10160.189203395
4	78068	27201.936884704643	10161.391974974
4	78073	27204.070251137808	10156.10688948
4	78084	27211.046894618265	10161.538232239
4	78110	27220.923878775901	10167.726976032
4	78199	27248.770876012821	10176.05452211
4	78208	27251.036233873383	10173.62002198
4	78218	27252.753078710393	10165.03866592
4	78238	27263.380062170704	10175.360919187
4	78265	27275.65858074896	10166.047284569
4	78271	27276.437108808299	10144.706725354
4	78276	27276.906125229926	10141.106382923
4	78290	27284.888865009156	10141.563712223
4	78313	27291.530917810719	10129.275102385
4	78318	27292.442598774024	10122.945060845
4	78323	27294.49036123678	10112.743312561
4	78339	27299.710387579249	10112.76037181
4	78398	27326.098087882263	10126.088238575
4	78403	27328.144112366601	10122.63578356
4	78410	27330.593914713373	10125.055589971
4	78421	27338.305534547642	10126.832567291
4	78518	27372.688954527258	10145.593728942
4	78523	27373.745112556483	10140.242655747
4	78535	27377.510377281933	10137.991642219
4	78580	27392.611954168651	10145.698186543
4	78585	27392.822217051345	10143.663435068
4	78592	27396.306034014006	10145.750703853
4	78603	27399.084195191821	10136.744324018
4	78612	27402.827778878879	10135.161436606
4	78626	27405.14904178993	10134.751996826
4	78637	27409.770160997176	10135.152040657
4	78661	27424.277537353051	10148.366088393
4	78781	27462.453422148291	10180.454201488
4	78788	27463.403626684451	10166.795647493
4	78807	27469.960106784579	10170.952640896
4	78819	27477.126616148637	10177.896344501
4	78830	27479.983149777085	10180.501713226
4	78850	27486.258156187624	10172.573735743
4	78955	27526.742140441961	10204.499849789
4	78960	27526.747147509463	10192.885560121
4	78965	27527.631724026529	10185.734827802
4	78970	27528.397055979154	10184.375022054
4	78978	27530.101341907707	10180.856517585
4	78985	27534.764658806976	10180.003886884
4	78992	27537.4863018835	10176.341103653
4	79005	27542.695267973164	10177.178323478
4	79010	27543.188808804498	10176.572718643
4	79017	27549.261356826806	10177.010307307
4	79024	27554.245306003181	10169.553523643
4	79075	27575.548558818675	10189.297590965
4	79090	27579.537138907765	10171.894576076
4	79126	27589.29219828192	10177.871261166
4	79131	27590.929012057625	10167.159956361
4	79148	27598.85457501777	10165.488297479
4	79251	27639.23333830922	10203.500378225
4	79256	27639.336636698127	10203.062703431
4	79273	27645.84709775828	10205.854958913
4	79348	27667.434756313365	10221.156899326
4	79358	27671.12582460296	10212.554290429
4	79365	27681.10580883305	10219.74646525
4	79376	27689.205610111099	10219.508156666
4	79396	27693.584167850604	10215.964439411
4	79403	27700.195467503065	10217.868448201
4	79427	27708.79528090807	10218.821372179
4	79432	27708.919030699174	10200.569927863
4	79441	27711.623675732712	10200.498734446
4	79452	27713.549503315134	10197.085833793
4	79460	27714.903126741506	10188.706403455
4	79470	27715.788265299121	10187.539263849
4	79481	27721.357524095869	10192.948465734
4	79513	27731.689418767747	10188.740766065
4	79521	27732.753008885984	10183.181154683
4	79538	27735.911540701634	10181.969480413
4	79543	27737.911931844054	10154.041424717
4	79553	27741.253010022372	10155.062489496
4	79577	27755.374716571284	10168.338489409
4	79592	27760.435071885823	10161.410573101
4	79621	27771.563440530359	10172.442405379
4	79634	27775.405702567005	10164.138159268
4	79684	27786.588147211624	10158.974323192
4	79692	27789.59699485962	10137.378107089
4	79699	27791.510394631814	10136.77336125
4	79704	27791.540292275831	10136.715364749
4	79713	27793.453239023666	10132.603957125
4	79730	27801.016054252081	10140.040753135
4	79741	27803.937209877637	10136.114802421
4	79746	27804.546981384716	10134.363293037
4	79751	27809.913379026287	10137.634819297
4	79760	27812.388320398307	10134.521179389
4	79778	27817.176064352165	10130.727537776
4	79788	27819.934275210337	10133.378022774
4	79978	27883.665005831859	10197.074748404
4	79986	27886.681344219857	10199.229786832
4	80003	27893.006999444667	10197.69207016
4	80042	27907.184428155517	10195.912542327
4	80047	27907.85054978105	10185.359030047
4	80052	27910.128587805621	10182.275527878
4	80057	27913.005622548369	10184.241246974
4	80068	27921.06670020558	10188.761883638
4	80156	27949.469790648249	10206.472284905
4	80168	27961.433310084945	10181.852431159
4	80199	27973.534945627631	10169.57223812
4	80225	27977.304053404133	10163.606936916
4	80232	27980.552166543305	10165.221977072
4	80244	27983.8680562209	10156.202268446
4	80319	28009.656493446933	10179.26816788
4	80346	28015.629439771498	10175.428700381
4	80353	28020.630733331828	10172.525631292
4	80364	28024.72295055249	10170.493686784
4	80375	28031.719540789027	10171.026498443
4	80382	28039.107747808389	10174.319042707
4	80397	28046.611505977345	10174.297629378
4	80452	28057.272522938557	10181.856416445
4	80474	28061.899909189204	10185.989504631
4	80491	28065.872423082901	10188.743677532
4	80511	28074.739934203271	10189.486195785
4	80516	28076.156793286945	10176.079209061
4	80521	28076.871762838671	10174.316751998
4	80526	28077.706673741853	10171.37440463
4	80531	28081.21893029291	10174.472895697
4	80538	28082.099500963143	10164.598179199
4	80559	28090.691886264572	10170.931630858
4	80564	28092.334280144152	10163.271429887
4	80571	28094.493945336717	10162.177513693
4	80577	28095.755896062325	10161.934905219
4	80582	28095.79428292368	10159.657367079
4	80589	28101.35537860988	10157.987140783
4	80613	28117.535185057602	10171.173780091
4	80620	28119.670143534699	10170.671366909
4	80633	28125.84478053979	10175.008567365
4	80648	28130.124951420682	10177.656024141
4	80666	28132.523423222388	10176.585871428
4	80678	28135.22360335859	10178.662247672
4	80692	28138.65603055605	10167.125903672
4	80697	28140.09713196709	10168.097521568
4	80705	28143.296829584159	10169.798304635
4	80731	28153.358834932979	10175.408973529
4	80738	28154.5402316427	10153.523468842
4	80752	28155.616356653946	10148.170857738
4	80764	28157.752864908302	10143.79589736
4	80770	28159.714174499011	10145.713812793
4	80775	28161.996770752178	10142.455210415
4	80785	28165.087742652063	10132.070537198
4	80850	28186.854831700187	10153.42207758
4	80855	28192.972288521698	10157.89708802
4	80874	28204.370684328874	10163.530948314
4	80930	28214.85784430448	10171.063247755
4	81016	28237.951932055868	10192.935700725
4	81157	28290.964251092411	10237.657123038
4	81166	28294.651234667757	10239.972458806
4	81177	28296.591870062052	10241.267799929
4	81189	28302.716267765535	10247.377371045
4	81210	28308.960690654066	10226.765842877
4	81230	28312.385210255056	10230.01727595
4	81242	28320.450386839663	10236.787210615
4	81248	28322.575819452517	10234.474812338
4	81257	28327.152611075207	10224.568267309
4	81312	28346.678334120843	10237.082869916
4	81317	28346.916017086902	10225.139521686
4	81325	28350.292848414247	10225.871970954
4	81337	28354.602168751707	10229.502723358
4	81342	28355.213958211846	10229.628090892
4	81352	28357.649880443247	10217.171361427
4	81368	28367.657346983081	10221.366854241
4	81375	28370.194545183806	10219.038151686
4	81381	28373.662033786377	10219.19338048
4	81386	28374.056831309039	10213.713829966
4	81391	28375.43207853931	10213.742077826
4	81399	28386.187207047994	10221.029360731
4	81409	28387.361099123417	10221.095266148
4	81415	28394.535163129978	10228.068457949
4	81420	28396.32212755044	10222.121643684
4	81427	28398.896754731832	10214.151814411
4	81696	28481.270297524346	10296.377112451
4	81706	28482.208349870934	10296.766793491
4	81720	28484.232014348857	10298.575010979
4	81764	28500.159406292107	10313.918354555
4	81784	28504.866630311018	10317.404813664
4	81791	28508.467795698288	10313.06443955
4	82053	28600.768308822259	10404.315296842
4	82058	28600.87515690745	10401.353121066
4	82065	28602.834632306529	10399.66267624
4	82077	28606.861405006691	10401.897575786
4	82093	28612.639219536354	10394.632772562
4	82190	28642.141229216717	10423.211102557
4	82199	28645.374912735735	10419.629538501
4	82263	28661.455216466583	10432.607390654
4	82268	28662.529897136444	10423.016239093
4	82277	28667.446034066228	10426.2242473
4	82288	28671.988836579355	10429.759731187
4	82295	28675.201631566802	10423.105961208
4	82344	28696.490417093999	10440.50121035
4	82357	28699.916899427221	10443.632853753
4	82369	28703.011995508693	10437.898540694
4	82391	28709.399989694585	10442.33296363
4	82401	28712.662760886776	10434.231228725
4	82418	28713.873916888095	10427.741740195
4	82429	28717.397418187941	10430.993614438
4	82444	28731.945906532909	10415.739812537
4	82464	28736.622728390148	10420.059739808
4	82477	28740.798171236666	10423.114656494
4	82482	28742.716177913764	10423.969507036
4	82491	28745.352050600839	10424.653773891
4	82507	28749.346360046458	10424.15775355
4	82527	28760.717998914351	10434.228346101
4	82537	28760.931160863234	10431.789456515
4	82542	28762.741508100983	10429.846698905
4	82550	28766.079972313956	10428.03484247
4	82562	28767.427355293097	10428.163081393
4	82574	28770.910503348021	10429.751603712
4	82581	28776.724004301368	10425.121045806
4	82593	28778.61190772681	10425.073950665
4	82629	28790.928074254699	10423.840435047
4	82661	28800.857049056536	10423.423233351
4	82881	28890.521977482594	10505.597898889
4	82890	28892.087180479741	10506.583431699
4	82903	28894.759105164764	10507.14962648
4	82931	28900.509940873273	10512.153817825
4	82938	28902.31173632103	10510.755729651
4	82959	28906.610195673	10482.063641828
4	82992	28916.54215229895	10469.667358494
4	83013	28923.167175028583	10476.036574928
4	83023	28926.545621451292	10465.608798927
4	83042	28930.986153178759	10467.238840957
4	83049	28931.668961995902	10456.883315148
4	83065	28939.321001773874	10449.991440867
4	83119	28955.388446580757	10457.855375288
4	83128	28960.145375526	10452.044853185
4	83155	28976.90749659678	10464.998348367
4	83304	29023.124836169042	10505.79400324
4	83313	29028.316994227339	10507.185083718
4	83332	29033.082435463237	10509.56621256
4	83340	29037.478181875968	10497.458624224
4	83353	29043.60794620951	10503.361283802
4	83364	29046.877559305677	10494.884406903
4	83417	29074.941151161456	10509.275244104
4	83424	29076.95077862198	10507.609796732
4	83431	29077.895445877751	10495.547306637
4	83448	29086.496954021708	10503.351538151
4	83459	29091.566823033605	10489.57901462
4	83464	29092.665021362144	10489.83956683
4	83469	29095.683466203891	10484.039631304
4	83474	29098.462706517888	10481.929608182
4	83479	29104.880458621667	10474.717536534
4	83486	29108.25510985671	10475.420584306
4	83532	29121.087951349623	10484.908287257
4	83546	29123.958892857502	10483.937091648
4	83556	29126.980857639464	10486.733025741
4	83729	29178.913029558538	10511.935639349
4	83735	29179.628072087098	10507.342823496
4	83740	29180.720109029922	10503.879727917
4	83750	29187.87239609039	10504.808735167
4	83757	29188.13831296359	10504.092766436
4	83772	29194.658104497294	10499.96509898
4	83918	29243.30268363874	10548.039813364
4	84043	29294.426200210109	10596.441257257
4	84057	29298.697721579453	10585.573234369
4	84195	29354.942103818753	10620.099124122
4	84202	29356.087711123336	10619.609241691
4	84209	29357.253901851479	10618.567534146
4	84226	29363.583227075779	10618.628446538
4	84244	29368.198973168926	10618.670442207
4	84493	29465.865837702961	10712.580232128
4	84498	29466.895605418728	10711.860957987
4	84503	29468.04732542304	10700.665696031
4	84512	29470.144294130022	10702.720652403
4	84541	29478.620258427001	10707.662727816
4	84595	29489.94583482862	10703.763187993
4	84600	29492.057728486415	10704.562776257
4	84607	29493.486483380053	10705.978349504
4	84614	29497.421114013386	10700.547702296
4	84620	29503.03032079499	10704.34388346
4	84628	29505.976128580837	10703.868102415
4	84691	29522.988326038001	10719.603061795
4	84699	29524.00896636519	10717.483631889
4	84709	29525.775272604928	10717.533017834
4	84718	29527.206799520477	10712.01374523
4	84730	29529.335456449449	10712.300261789
4	84747	29540.074231970469	10719.406457861
4	84823	29565.739277330276	10743.107409851
4	84828	29566.88699268531	10742.474059289
4	84833	29566.888332487319	10739.918206262
4	84843	29571.658779215253	10735.835492185
4	84864	29576.963433876041	10740.061180494
4	84881	29584.646556348371	10746.665577889
4	84905	29597.377027638266	10756.300573036
4	84910	29602.102015461122	10758.512148929
4	84915	29602.241493560054	10756.25959989
4	84928	29609.606601179096	10759.246628266
4	84955	29614.080675722637	10755.479831578
4	84968	29621.098409647983	10762.216107689
4	85031	29637.041789038638	10775.924753459
4	85042	29639.159887092257	10775.516292751
4	85065	29646.071161412774	10776.863202994
4	85079	29647.854502701545	10771.014872454
4	85577	29849.917683920519	10972.881237338
4	85584	29851.037247242094	10971.029373174
4	85596	29854.482225809174	10972.435666063
4	85608	29861.376873622318	10965.098981511
4	85638	29869.606873365163	10971.34334842
4	85646	29872.326115438033	10953.477796353
4	85651	29874.359068477117	10949.939217456
4	85662	29876.311876789836	10948.540558516
4	85709	29887.7072778303	10959.663137069
4	85725	29888.575218441785	10952.51737445
4	85732	29894.206735410562	10940.603742011
4	85740	29899.549712996441	10944.911205834
4	85751	29904.507100412053	10941.668117177
4	85797	29916.991135959205	10954.09068899
4	85809	29922.664786582387	10957.15519327
4	85836	29932.532573412502	10955.088964849
4	85852	29940.267891868643	10959.99809085
4	85864	29941.124924498098	10956.445294882
4	85869	29941.726895621756	10944.890332015
4	85879	29952.676207844588	10948.725707434
4	85925	29966.017859864447	10956.614714998
4	85996	29988.228170391244	10968.771956513

