version 2
run Third-n4-10-20191016-17:04:58-14820
attr configname Third-n4
attr datetime 20191016-17:04:58
attr experiment Third-n4
attr inifile omnetpp.ini
attr iterationvars ""
attr iterationvarsf ""
attr measurement ""
attr network org.omnetpp.queueing.Pizza
attr processid 14820
attr repetition 10
attr replication ""
attr resultdir results
attr runnumber 10
attr seedset 10
param **.PS.maxInventoriedPS 4
param **.U1.interArrivalTime exponential(4s)
param **.U2.interArrivalTime exponential(6s)
param **.PS.serviceTimeForInventoryU1 exponential(1.4s)
param **.PS.serviceTimeForInventoryU2 exponential(1.4s)
param **.PS.serviceTimeDirectU1 exponential(1.8s)
param **.PS.serviceTimeDirectU2 exponential(1.8s)
param **.PS.probabilityProducing 0.8
param **.CS.serviceTimeU1 exponential(2.3s)
param **.CS.serviceTimeU2 exponential(2.3s)

vector 0 Pizza.EntryQueueU1 queueLength:vector ETV
attr interpolationmode sample-hold
attr title "queue length, vector"
vector 1 Pizza.CS queueLength:vector ETV
attr interpolationmode sample-hold
attr title "queue length, vector"
vector 2 Pizza.EntryQueueU2 queueLength:vector ETV
attr interpolationmode sample-hold
attr title "queue length, vector"
vector 3 Pizza.sink lifeTime:vector ETV
attr interpolationmode none
attr title "lifetime of arrived jobs, vector"
attr unit s
vector 4 Pizza.sink lifeTimeU2:vector ETV
attr interpolationmode none
attr title "lifetime of arrived jobs, vector"
attr unit s
vector 5 Pizza.sink lifeTimeU1:vector ETV
attr interpolationmode none
attr title "lifetime of arrived jobs, vector"
attr unit s
0	0	0	0
0	10	5.901737779903	1
0	14	6.920257362895	2
0	15	7.459240497746	1
0	20	7.671962811305	0
0	26	8.154878635698	1
0	31	10.320271663308	0
0	57	20.418926283357	1
0	59	21.225586971382	2
0	60	21.876954622972	1
0	65	22.133130077967	0
0	72	23.557976540193	1
0	73	23.788612722226	0
0	79	23.790375594427	1
0	81	23.837807843324	2
0	84	26.787434427521	3
0	87	27.551185027188	2
0	94	28.400597855251	3
0	96	28.491240732363	2
0	101	28.601713383155	1
0	107	28.884680573088	2
0	108	28.900843253253	1
0	113	29.244482001419	0
0	123	32.057312262112	1
0	126	33.461002363723	2
0	127	33.715369949247	1
0	132	34.13015791171	0
0	181	50.307232731063	1
0	183	50.602445273439	0
0	202	54.622058988013	1
0	210	58.120898818922	2
0	211	60.052701536195	1
0	218	61.046895386678	0
0	228	63.883741944683	1
0	229	64.999941679652	0
0	235	65.10015682798	1
0	237	65.203068532308	2
0	239	65.359946786276	3
0	241	66.623846701977	2
0	248	66.804185318585	3
0	249	68.499477226231	2
0	258	70.138487261733	3
0	260	70.404119538139	4
0	263	71.665815303706	3
0	270	72.368534730589	4
0	272	78.895060160398	3
0	278	79.776249287043	2
0	283	80.000393920386	1
0	288	80.162605651914	0
0	310	87.471643603532	1
0	314	87.90814095597	2
0	315	89.414946886736	1
0	321	90.780640386233	2
0	324	91.474216405169	3
0	325	91.493054246986	2
0	331	91.681401347473	3
0	334	92.138843946029	4
0	336	92.927299117203	5
0	340	95.6937380452	6
0	341	95.768079184785	5
0	347	96.335914342363	4
0	352	96.595892212597	3
0	358	96.836298551702	4
0	359	97.222056755827	3
0	366	99.374191519058	4
0	368	100.187725909355	5
0	371	104.755393554214	4
0	377	104.92737470082	5
0	382	108.054488513426	6
0	385	111.630447115502	5
0	392	112.604684423875	4
0	397	113.177997696202	3
0	402	113.212432230123	2
0	407	114.191552669768	1
0	412	116.14742118352	0
0	416	117.455910544691	1
0	418	117.610756189454	2
0	424	121.481283222662	1
0	429	121.735448824435	0
0	444	126.003956832969	1
0	446	126.381668745279	2
0	452	127.335778093299	3
0	453	127.904187295254	2
0	459	128.216241827835	1
0	467	130.895811835094	2
0	470	135.094242168304	1
0	475	135.517465957874	0
0	481	136.359647243311	1
0	489	140.015339369297	2
0	490	141.80878222687	1
0	495	143.326028182034	0
0	506	143.712257824288	1
0	508	144.486801359508	2
0	510	145.191891685493	3
0	515	147.64564552759	4
0	518	151.023277436967	3
0	523	151.057186382775	2
0	528	151.966411905701	1
0	534	153.369616801024	0
0	541	155.087146916052	1
0	543	155.484921556998	2
0	546	156.556737582152	1
0	554	157.418233894345	2
0	555	159.832372994548	1
0	563	163.03047160147	2
0	567	163.42286551802	3
0	568	163.575486617892	2
0	576	166.422184340695	1
0	581	166.874665679133	0
0	591	170.136219046746	1
0	593	170.942088999911	0
0	615	172.510938860971	1
0	617	172.613293083581	2
0	618	172.933591308708	1
0	623	173.403042930345	0
0	627	174.374603184156	1
0	629	174.660730440733	2
0	633	175.909261777171	3
0	639	177.655362806848	4
0	643	178.839016627077	5
0	645	179.254555902402	6
0	646	181.365699890839	5
0	653	182.580884046196	4
0	658	184.735810462804	3
0	664	186.512582885179	2
0	669	186.813169195107	1
0	677	187.029475094299	2
0	680	187.661867421891	1
0	686	188.202977727103	0
0	694	189.084583915468	1
0	695	189.425423042836	0
0	727	194.226496093132	1
0	731	195.511700461032	2
0	734	196.522534577157	1
0	746	199.187396207347	2
0	747	199.348301877877	1
0	755	201.64270174748	2
0	757	202.917767363014	3
0	759	203.776751633999	4
0	761	204.532518815237	3
0	769	209.032490099609	2
0	777	211.133851475237	1
0	782	211.41213658286	0
0	786	212.094807310955	1
0	794	213.955851889632	2
0	799	217.780097664824	1
0	805	218.020683854608	2
0	806	219.04311350605	1
0	815	223.710123908098	0
0	839	229.321742366812	1
0	844	232.586378318571	0
0	850	232.830559698969	1
0	851	233.146038659004	0
0	871	236.505276099583	1
0	876	239.397753652566	2
0	878	239.742688914791	3
0	879	240.044180971265	2
0	885	241.775131088418	1
0	891	243.980962143383	0
0	904	245.879625313148	1
0	905	246.626753245803	0
0	914	247.968191675728	1
0	919	249.662118155755	2
0	923	250.594525516679	3
0	926	252.945233119789	4
0	928	254.375993797296	5
0	930	255.562118604912	6
0	932	259.329377904391	7
0	934	262.185486781014	8
0	935	262.362165644824	7
0	940	262.726550297774	6
0	945	263.105001713265	5
0	950	263.340371148888	4
0	958	265.826341958787	3
0	963	266.295638174814	2
0	969	266.365751838925	3
0	973	269.313821993693	2
0	979	270.93145097634	1
0	987	275.085632009457	2
0	989	275.170944858819	1
0	995	275.640734902763	2
0	999	281.481521905375	1
0	1004	282.04682385425	0
0	1010	282.626615090358	1
0	1012	282.665887153329	2
0	1014	283.230373173723	3
0	1018	284.254139090246	4
0	1020	284.820647413456	5
0	1025	285.485795858399	6
0	1027	285.519807701706	7
0	1028	287.351004413663	6
0	1035	288.999898037296	7
0	1037	290.324816047245	6
0	1043	290.53448404911	5
0	1049	293.94708136812	4
0	1055	294.897275969192	5
0	1057	295.722285200675	4
0	1062	296.128940757774	3
0	1069	296.419921232113	4
0	1071	297.618355544447	3
0	1080	301.381807917332	4
0	1081	302.139465691037	3
0	1087	302.813117856812	2
0	1093	305.242233309571	1
0	1098	305.324992871255	0
0	1107	307.030429201379	1
0	1109	307.311498104342	2
0	1111	308.369872494632	1
0	1116	308.773221225586	0
0	1131	311.955368265278	1
0	1132	320.361093222614	0
0	1141	322.250710335871	1
0	1143	324.085039219707	2
0	1144	324.376035930647	1
0	1149	324.45572905071	0
0	1158	325.252758991243	1
0	1160	327.014430028331	0
0	1180	332.926281053942	1
0	1182	334.405351653689	2
0	1184	334.875903226694	3
0	1186	335.45882704933	4
0	1187	336.026055814119	3
0	1195	337.747162740801	2
0	1201	338.464335087271	3
0	1203	340.786943475992	2
0	1208	341.449912665415	1
0	1215	342.657187284969	0
0	1224	345.765929051907	1
0	1228	348.444833862695	2
0	1232	348.701938587178	3
0	1233	349.613446167085	2
0	1239	351.224187563984	1
0	1247	355.004159613735	0
0	1257	361.765605974389	1
0	1258	364.244642359773	0
0	1265	367.089258742975	1
0	1266	368.479773808527	0
0	1273	369.431290814632	1
0	1274	371.375440038403	0
0	1286	375.817577564399	1
0	1288	377.163051697477	2
0	1289	379.181854801673	1
0	1295	380.238490949942	0
0	1304	383.118453338955	1
0	1305	383.540751202916	0
0	1317	385.860628129616	1
0	1319	386.525162013793	2
0	1321	386.693411126072	3
0	1323	386.700455940821	4
0	1325	387.143576258966	5
0	1326	388.498453644166	4
0	1331	390.7365034353	3
0	1338	391.489156406693	2
0	1343	392.661815457216	1
0	1350	393.30477746283	0
0	1363	400.794116855457	1
0	1364	401.388298592379	0
0	1375	401.874722534194	1
0	1376	401.9403214781	0
0	1402	411.472086665049	1
0	1405	413.719883431404	0
0	1422	422.23000207377	1
0	1425	422.985269018723	0
0	1434	423.403574670106	1
0	1439	428.198319333724	0
0	1453	428.843294265026	1
0	1456	429.935953042522	0
0	1520	454.38072918327	1
0	1521	454.970970102351	0
0	1537	457.392199960146	1
0	1540	460.057406399293	0
0	1551	462.169973230087	1
0	1555	462.396703005494	2
0	1559	465.383897342931	1
0	1565	465.887932029254	2
0	1569	466.755259389957	3
0	1570	467.721006350766	2
0	1577	468.46240152915	3
0	1580	468.852180973344	4
0	1581	469.311583657181	3
0	1586	469.323784132927	2
0	1593	469.943526814405	1
0	1600	471.632493120386	0
0	1607	473.643626985214	1
0	1608	474.077501014958	0
0	1614	475.385122863762	1
0	1618	477.282579921018	2
0	1620	477.647489686438	1
0	1625	477.657225262925	0
0	1639	481.683750631383	1
0	1640	482.086277332551	0
0	1671	492.514825290994	1
0	1673	494.24597334597	2
0	1674	494.400130363339	1
0	1680	496.439973405333	0
0	1697	499.863684067144	1
0	1699	500.1938162398	0
0	1711	501.182822905219	1
0	1713	502.209418129996	2
0	1714	503.273024552175	1
0	1720	503.619329652711	0
0	1734	504.490695587097	1
0	1738	510.519884976028	2
0	1741	512.095083654384	1
0	1746	512.517266805691	0
0	1755	513.171753065164	1
0	1763	515.753855863883	2
0	1764	516.80018420257	1
0	1771	517.303779637994	0
0	1780	520.858549599231	1
0	1783	521.456182906925	0
0	1787	521.867107194042	1
0	1791	524.067226901755	0
0	1800	524.849434303352	1
0	1802	525.484764939099	0
0	1806	528.760334107059	1
0	1811	530.129025941254	0
0	1831	531.778039594511	1
0	1832	532.822789816815	0
0	1842	539.458029492223	1
0	1843	539.575981413791	0
0	1865	545.820104455055	1
0	1867	545.938786114397	2
0	1868	546.234900099867	1
0	1880	551.306055368125	0
0	1890	552.726015218052	1
0	1892	552.826038388389	2
0	1901	559.06156047532	1
0	1906	559.804555163726	0
0	1912	560.010598678049	1
0	1915	561.206497351723	2
0	1917	561.656469349499	1
0	1925	562.563653767416	2
0	1927	564.4653827487	3
0	1928	565.27910602738	2
0	1934	565.725459758882	3
0	1935	565.970323319214	2
0	1940	568.940413611913	1
0	1949	571.343724195794	0
0	1977	579.367324998921	1
0	1979	582.976984903029	0
0	1985	584.376475895542	1
0	1989	586.745399952067	0
0	1997	588.117511005054	1
0	1999	589.607853402436	2
0	2002	589.926445896999	3
0	2004	591.356151746515	4
0	2007	598.075220881511	5
0	2011	599.854509299242	6
0	2012	600.142859376779	5
0	2020	608.965313515801	4
0	2025	610.772121150762	3
0	2039	614.724240281787	4
0	2040	615.475579101355	3
0	2046	616.803732386114	4
0	2047	617.147918418255	3
0	2053	617.485345612619	4
0	2054	618.469044538925	3
0	2063	622.290986275345	4
0	2065	626.455999522591	3
0	2071	627.163089578238	4
0	2074	629.503511897452	5
0	2076	629.597857558578	6
0	2077	629.69476756346	5
0	2084	630.764900345525	6
0	2086	631.842509881275	7
0	2088	632.036928530861	8
0	2089	632.531283907295	7
0	2094	632.809051097639	6
0	2100	633.282138471146	5
0	2105	634.331456739173	4
0	2110	634.609997699064	3
0	2116	637.288900414976	4
0	2117	637.36279169672	3
0	2124	640.077699083953	4
0	2125	640.378010633499	3
0	2135	642.794122460192	2
0	2140	642.986636216787	1
0	2147	643.515415975239	0
0	2165	645.979826171681	1
0	2166	646.120653562573	0
0	2178	647.861183765044	1
0	2181	650.631937491972	0
0	2202	654.615149822775	1
0	2204	655.204954427519	2
0	2206	656.164375254215	3
0	2211	661.721466356688	2
0	2216	661.949837410146	1
0	2222	662.048611877358	2
0	2224	664.831912281033	1
0	2231	667.177707290652	0
0	2237	668.047457683847	1
0	2238	668.369158205723	0
0	2258	673.53463719589	1
0	2259	674.26933558584	0
0	2266	674.98594198075	1
0	2270	677.956615501666	2
0	2271	680.488453365357	1
0	2277	680.87395719303	2
0	2281	682.908001566277	3
0	2285	684.082526664743	4
0	2290	686.72181681518	3
0	2299	688.205009330235	4
0	2300	689.627160390724	3
0	2306	690.633593594191	4
0	2310	691.319128221354	5
0	2313	692.525684063411	6
0	2314	695.4348619205	5
0	2323	703.535802105749	6
0	2327	706.951908819264	7
0	2329	709.359388511582	8
0	2332	710.613982763061	7
0	2338	712.580029054277	6
0	2346	715.707420858304	7
0	2348	716.755828185816	6
0	2353	716.989824624941	5
0	2359	717.387642819595	6
0	2360	717.914257074993	5
0	2365	718.143046929165	4
0	2370	718.164049409285	3
0	2374	718.554538488543	4
0	2381	725.139897672478	5
0	2382	726.02826683071	4
0	2387	726.201131197922	3
0	2393	729.963754488006	2
0	2399	730.175208437731	1
0	2403	730.206563412613	2
0	2405	732.449400850036	3
0	2407	735.978208412622	4
0	2421	740.212505136633	3
0	2427	742.469279676413	4
0	2428	742.73700864384	3
0	2435	743.624154214251	4
0	2438	745.007210326916	5
0	2439	745.54756797428	4
0	2445	746.268317936369	5
0	2448	748.247954998576	4
0	2458	749.539567507932	5
0	2459	751.623981295899	4
0	2465	751.748591302074	3
0	2470	752.385085651166	2
0	2479	755.288942112407	3
0	2480	755.451876758702	2
0	2485	755.469459602885	1
0	2493	758.070916590231	2
0	2498	759.559141730777	1
0	2505	761.0772677123	0
0	2516	762.480089974483	1
0	2517	762.856185048564	0
0	2523	763.558971781211	1
0	2526	764.351245520017	0
0	2561	773.955092645851	1
0	2563	778.261654008669	2
0	2566	779.426889151766	1
0	2576	783.25652874587	2
0	2577	783.642493808889	1
0	2582	784.086646727658	0
0	2597	787.850832298686	1
0	2603	790.053151852911	2
0	2605	790.465218875456	3
0	2607	790.75049966108	4
0	2608	790.854382473131	3
0	2615	791.588189584379	4
0	2617	792.307596783313	5
0	2621	793.720263057588	6
0	2623	794.387074658933	5
0	2628	794.615686842358	4
0	2635	797.596751024073	3
0	2643	800.093243666621	4
0	2644	802.784886721444	3
0	2649	803.341902708451	2
0	2655	804.244408858023	1
0	2660	804.705313429659	0
0	2666	806.669745248711	1
0	2670	808.025096545311	0
0	2700	819.334614893448	1
0	2702	822.550965981426	2
0	2706	826.336187677274	3
0	2707	827.111188102051	2
0	2713	831.930450131969	1
0	2720	832.683343310693	0
0	2733	836.911428781908	1
0	2735	838.751288164677	2
0	2737	842.509800059426	3
0	2738	843.222520142727	2
0	2743	844.042273630329	1
0	2748	844.570724691288	0
0	2760	847.341360618168	1
0	2762	847.950532470772	2
0	2766	848.508720523486	1
0	2772	849.399533810822	2
0	2775	849.921321816569	1
0	2781	850.833339969045	2
0	2785	852.958380820875	3
0	2787	854.108939083337	2
0	2794	854.535349947754	3
0	2796	854.653250871789	4
0	2799	855.788146879863	5
0	2801	856.057106793117	6
0	2803	857.826314447156	5
0	2813	860.103386621205	4
0	2820	860.871581306776	3
0	2825	861.702738798165	2
0	2830	863.212233007449	1
0	2840	865.321638944953	0
0	2861	869.21754832644	1
0	2862	869.850465302973	0
0	2884	871.670823606913	1
0	2885	871.945314545351	0
0	2913	877.988596376965	1
0	2914	878.267726255932	0
0	2921	881.9239239466	1
0	2922	885.218202678091	0
0	2954	907.753018254769	1
0	2955	908.245534835815	0
0	2967	912.993956255519	1
0	2971	913.756094677734	0
0	2982	914.967292947849	1
0	2984	915.232399027183	0
0	3003	918.712831109404	1
0	3004	919.502854541955	0
0	3018	923.787960548102	1
0	3021	925.760609058965	0
0	3046	939.674348416148	1
0	3049	940.839566326191	0
0	3065	944.093435506391	1
0	3068	945.93131287452	0
0	3090	948.718492368683	1
0	3094	954.226446942397	0
0	3106	955.978091699195	1
0	3108	958.638672548037	2
0	3111	959.623115120763	1
0	3117	961.295591096415	0
0	3150	978.227137717329	1
0	3156	984.208205668832	2
0	3159	984.826223541565	1
0	3168	991.546780485376	0
0	3186	995.445438760372	1
0	3187	995.719637851111	0
0	3198	1000.446660365464	1
0	3202	1002.718222104045	2
0	3208	1008.102996667235	3
0	3209	1008.357286238488	2
0	3214	1008.953147846717	1
0	3219	1009.38595093186	0
0	3236	1012.742760683107	1
0	3238	1012.941107850162	2
0	3246	1018.665407599112	3
0	3249	1020.337148346856	2
0	3255	1020.485976719736	3
0	3256	1020.930579359139	2
0	3262	1021.614706610753	3
0	3264	1021.689096867299	4
0	3266	1022.504104350485	5
0	3268	1023.122769767187	6
0	3271	1023.851627937082	7
0	3272	1024.647985701234	6
0	3277	1024.845927257896	5
0	3283	1025.83803766878	6
0	3287	1027.699482212373	5
0	3294	1029.326863242466	6
0	3295	1030.607105415087	5
0	3301	1031.059956439667	6
0	3302	1031.251731769468	5
0	3314	1036.903153936975	4
0	3320	1038.83402185437	3
0	3325	1039.325689519363	2
0	3330	1040.425505304476	1
0	3335	1040.496268623836	0
0	3366	1044.81939003722	1
0	3370	1050.07202859333	2
0	3372	1050.230475686518	3
0	3379	1056.688589102391	2
0	3385	1056.913605825009	3
0	3386	1057.31324232921	2
0	3396	1059.17600720069	3
0	3397	1059.987675092601	2
0	3403	1061.196109230504	3
0	3407	1063.427606569594	4
0	3409	1063.832164320412	5
0	3410	1065.753979131643	4
0	3419	1071.576705908593	3
0	3425	1072.201697173938	4
0	3427	1075.032628314133	5
0	3428	1075.436802774118	4
0	3434	1076.865008520425	3
0	3439	1077.96136416047	2
0	3448	1079.411929574548	1
0	3453	1080.516216553561	0
0	3457	1080.959567602401	1
0	3464	1085.895109401503	0
0	3472	1089.7189287418	1
0	3473	1089.81935732314	0
0	3500	1096.187413269943	1
0	3501	1096.603007164266	0
0	3510	1100.753575616238	1
0	3512	1101.885732923247	0
0	3526	1104.321375695173	1
0	3527	1105.963491931076	0
0	3534	1107.236430515755	1
0	3535	1107.661004756838	0
0	3547	1113.095831987611	1
0	3552	1115.889292383215	0
0	3612	1141.842176270178	1
0	3614	1141.96842160236	2
0	3615	1145.170708533243	1
0	3623	1147.566569429035	0
0	3641	1154.918698714097	1
0	3644	1155.702075969959	0
0	3660	1157.355346751007	1
0	3664	1158.344739974167	2
0	3671	1162.150214731682	3
0	3674	1165.927235600987	2
0	3682	1166.406329257018	1
0	3691	1168.904586433678	0
0	3704	1172.43665280527	1
0	3707	1173.720928083715	2
0	3709	1175.313089960424	1
0	3714	1175.381250559955	0
0	3726	1178.542451335861	1
0	3729	1179.459634366271	2
0	3730	1180.704574404646	1
0	3737	1186.976071588162	2
0	3740	1190.973547925703	1
0	3745	1191.271209137416	0
0	3751	1191.710212678607	1
0	3753	1192.420527073231	2
0	3754	1192.956519963797	1
0	3760	1192.997332654819	2
0	3764	1194.019369831132	3
0	3772	1199.754334666873	2
0	3778	1200.209400029812	1
0	3787	1202.607254365538	2
0	3789	1206.116276717717	3
0	3790	1206.262653760089	2
0	3797	1207.247355921292	1
0	3802	1207.279516520578	0
0	3808	1208.053630409636	1
0	3809	1208.535643595932	0
0	3849	1223.092216478175	1
0	3854	1223.964262349037	0
0	3899	1236.034602413133	1
0	3902	1239.580774726627	0
0	3908	1239.635678002056	1
0	3917	1243.828853718596	2
0	3918	1244.166983394878	1
0	3929	1247.949751471806	2
0	3930	1250.201550433666	1
0	3935	1250.613913151525	0
0	3967	1260.905699241754	1
0	3969	1261.815350839682	2
0	3971	1262.62357819494	3
0	3974	1265.898620924557	2
0	3979	1266.501934473017	1
0	3984	1267.022156498837	0
0	3990	1267.891750640637	1
0	3994	1271.213468347592	0
0	4017	1276.4013257937	1
0	4018	1276.664437970465	0
0	4029	1278.043630652953	1
0	4038	1279.502477470188	2
0	4039	1280.43064660077	1
0	4044	1281.145204303236	0
0	4071	1287.998961372364	1
0	4073	1288.388752666102	2
0	4075	1288.644357391417	3
0	4079	1290.622443146261	2
0	4084	1290.694159863438	1
0	4089	1290.865386515701	0
0	4098	1292.525047375688	1
0	4100	1294.253596106918	2
0	4102	1297.064016037166	3
0	4105	1300.570678159647	2
0	4114	1303.681742359408	1
0	4122	1305.505031665789	0
0	4131	1306.515239340552	1
0	4141	1314.90438407502	0
0	4170	1325.212989593732	1
0	4171	1325.251242790833	0
0	4185	1327.642906622332	1
0	4188	1327.942092655607	2
0	4190	1328.028009909856	3
0	4195	1329.56025911431	2
0	4200	1329.605969522398	1
0	4210	1334.298504415754	0
0	4216	1336.207759665262	1
0	4218	1337.026027529902	0
0	4224	1337.618245878381	1
0	4228	1339.043357867679	2
0	4232	1340.123884978306	3
0	4236	1345.484520803878	2
0	4245	1347.621469195617	3
0	4248	1348.459567124724	2
0	4253	1350.576287577327	1
0	4259	1352.610677071932	2
0	4262	1355.17554913929	1
0	4268	1355.208611884824	2
0	4269	1356.215979861273	1
0	4275	1356.324307872129	2
0	4278	1360.422439248933	1
0	4284	1360.442048831961	2
0	4287	1361.165783877572	1
0	4292	1362.874192733681	0
0	4305	1367.703373555453	1
0	4306	1368.169416201276	0
0	4327	1376.135676760162	1
0	4329	1376.573969088012	2
0	4331	1377.443902239222	3
0	4333	1377.82619536528	4
0	4334	1379.972377746667	3
0	4342	1382.218375769713	4
0	4344	1382.926353240086	3
0	4350	1383.047476195049	4
0	4354	1387.916476604508	3
0	4359	1388.035186134498	2
0	4365	1389.401760901188	1
0	4370	1389.767189474622	0
0	4377	1390.545603689755	1
0	4380	1394.074132126186	0
0	4402	1404.238894417334	1
0	4403	1404.61103944586	0
0	4417	1410.104615886215	1
0	4419	1412.807202624174	2
0	4421	1415.199040640917	3
0	4424	1418.272223381442	2
0	4434	1422.260440644664	1
0	4439	1422.277425601239	0
0	4458	1427.526183039074	1
0	4459	1428.122945285584	0
0	4474	1433.858098952687	1
0	4475	1436.4228472802	0
0	4533	1453.267959411617	1
0	4535	1453.565512613016	2
0	4538	1455.198789650526	1
0	4544	1457.933378444916	0
0	4554	1460.362509438701	1
0	4558	1461.671154762902	2
0	4559	1461.987137154409	1
0	4565	1462.765428765214	0
0	4589	1466.00110098536	1
0	4590	1466.363912777551	0
0	4604	1469.497154398745	1
0	4605	1471.127935210975	0
0	4615	1473.337277374797	1
0	4616	1473.506944463665	0
0	4623	1474.972237535406	1
0	4624	1475.678435196082	0
0	4630	1476.302381698007	1
0	4633	1477.537547566793	2
0	4634	1477.693888345779	1
0	4641	1478.336832370915	0
0	4657	1479.844234351892	1
0	4659	1480.672939374609	2
0	4664	1482.595546775104	1
0	4670	1483.657596409083	0
0	4676	1484.09023631563	1
0	4681	1492.421361468531	2
0	4683	1492.524258005692	3
0	4684	1493.319253901096	2
0	4689	1493.324478565143	1
0	4697	1495.070230408509	0
0	4710	1500.264560396835	1
0	4712	1500.383637250476	2
0	4713	1500.824695593975	1
0	4718	1501.524319743301	0
0	4727	1504.760321855539	1
0	4729	1505.182972506839	0
0	4742	1509.489224154806	1
0	4744	1510.362065254809	2
0	4746	1510.604659782026	3
0	4748	1511.66901012154	4
0	4751	1512.421683900664	3
0	4757	1514.638576397832	4
0	4760	1515.759816163533	3
0	4769	1521.933286465459	2
0	4775	1523.678926928483	1
0	4785	1532.802523910363	2
0	4787	1534.298780473687	3
0	4789	1534.826645045726	4
0	4790	1535.293890461882	3
0	4795	1535.803607274558	2
0	4800	1535.953147648668	1
0	4806	1536.611381995961	0
0	4833	1542.95888992626	1
0	4835	1543.144843456792	2
0	4838	1545.470504450758	1
0	4843	1547.264963532899	0
0	4859	1549.612791533516	1
0	4862	1553.594712749877	0
0	4869	1555.893634748759	1
0	4875	1559.784120400236	2
0	4876	1562.674047889085	1
0	4882	1564.618060380938	0
0	4897	1571.691266224501	1
0	4901	1575.710782807039	2
0	4906	1577.530382877318	1
0	4912	1579.872051125771	0
0	4918	1579.956110175874	1
0	4919	1581.536953268463	0
0	4934	1585.977440159726	1
0	4938	1588.93052785215	0
0	4961	1592.477985649066	1
0	4963	1592.910297842532	2
0	4964	1593.95867173378	1
0	4969	1596.061062014979	0
0	4982	1600.325160988187	1
0	4985	1600.535881622295	2
0	4990	1602.428169995256	3
0	4991	1602.654272285616	2
0	4997	1603.739779038161	1
0	5002	1603.84312414798	0
0	5021	1612.529394761538	1
0	5024	1614.75697317908	0
0	5036	1618.626567998583	1
0	5037	1618.775603183518	0
0	5043	1618.85526203741	1
0	5044	1618.85734087686	0
0	5056	1624.496149660106	1
0	5059	1627.384750433722	0
0	5066	1628.387299647045	1
0	5068	1629.162923597783	2
0	5070	1630.354777203785	3
0	5072	1630.483631333595	4
0	5073	1630.894528326564	3
0	5078	1631.68184977003	2
0	5083	1633.815559559264	1
0	5091	1635.132237155861	2
0	5092	1636.121395403096	1
0	5098	1636.673353757683	2
0	5099	1637.550445552124	1
0	5107	1640.884332144293	2
0	5113	1646.120962630346	3
0	5115	1646.625168545321	4
0	5116	1646.810104970551	3
0	5121	1648.102563996699	2
0	5129	1649.40252042018	1
0	5135	1649.648452021244	2
0	5140	1650.823443591837	3
0	5142	1651.164048698664	4
0	5143	1654.59736374374	3
0	5148	1655.605967699045	2
0	5154	1656.768245745476	3
0	5155	1657.106028141408	2
0	5159	1657.869516762844	3
0	5161	1658.867026451806	4
0	5165	1662.834175573638	3
0	5171	1663.681480766243	2
0	5178	1664.635246359116	3
0	5180	1665.180993362147	4
0	5181	1665.182580678221	3
0	5187	1665.433078047756	2
0	5193	1667.497519102023	1
0	5200	1667.815914996442	0
0	5204	1670.23871871264	1
0	5207	1674.114932282769	0
0	5226	1681.036178524492	1
0	5234	1686.709645206713	0
0	5257	1693.134632143312	1
0	5261	1694.576701373536	2
0	5262	1695.512415629626	1
0	5267	1695.60200165201	0
0	5293	1702.393221378272	1
0	5296	1702.792079210151	2
0	5297	1703.128678334501	1
0	5306	1704.850854729458	2
0	5310	1705.92407349282	3
0	5312	1706.460869667963	4
0	5314	1706.486055448617	5
0	5316	1708.567874079702	6
0	5318	1708.612263163509	7
0	5319	1710.730679716899	6
0	5325	1711.096240480499	5
0	5330	1711.401382556197	4
0	5335	1712.741306315535	3
0	5346	1715.837517848374	2
0	5352	1717.590590786701	1
0	5360	1718.225612008685	2
0	5363	1721.694224581878	1
0	5370	1722.943712720881	0
0	5390	1734.107119215164	1
0	5396	1740.254233385144	2
0	5398	1741.904084530876	3
0	5401	1747.165694895406	2
0	5408	1749.775213165034	3
0	5409	1751.462902331086	2
0	5417	1753.170312446814	1
0	5423	1755.64080394969	0
0	5457	1766.569159758778	1
0	5459	1769.327445475232	2
0	5460	1769.379745186333	1
0	5465	1769.506133392402	0
0	5484	1774.902960377352	1
0	5488	1781.7920809913	2
0	5490	1784.237438073053	3
0	5491	1784.956445769623	2
0	5497	1787.160433754516	1
0	5504	1787.570061551435	2
0	5505	1788.223783568893	1
0	5511	1790.80335139648	0
0	5520	1792.270750581694	1
0	5521	1793.045760707268	0
0	5527	1793.147466048136	1
0	5528	1793.281904366868	0
0	5534	1793.758944535577	1
0	5537	1794.382134571521	2
0	5539	1796.165806260662	1
0	5547	1797.557199613105	2
0	5550	1801.407732982539	1
0	5557	1803.441253064173	0
0	5564	1804.824903411522	1
0	5565	1806.560270935206	0
0	5578	1808.629837833453	1
0	5580	1810.77498807719	0
0	5587	1812.679529803607	1
0	5588	1813.018166426423	0
0	5594	1813.149685819378	1
0	5597	1814.49133012734	0
0	5618	1817.899633016731	1
0	5620	1818.262449793395	2
0	5621	1820.312152038967	1
0	5626	1820.513274027487	0
0	5635	1823.020845156139	1
0	5637	1823.452278920173	2
0	5641	1823.801062933504	3
0	5645	1824.86916006028	4
0	5647	1825.244924927113	3
0	5654	1827.685825045721	2
0	5660	1829.011408881088	1
0	5666	1829.385731910764	2
0	5669	1830.530967313587	1
0	5677	1831.446081703026	0
0	5685	1833.034025130186	1
0	5689	1834.913320790344	2
0	5691	1835.990648082225	3
0	5694	1837.559137796303	2
0	5701	1840.265203132988	3
0	5702	1841.558179002326	2
0	5710	1846.700903829496	1
0	5716	1846.817482287388	0
0	5740	1852.709401742726	1
0	5743	1853.31788205847	0
0	5749	1853.522870302456	1
0	5750	1853.911275813321	0
0	5770	1858.313143174653	1
0	5774	1861.34821126916	2
0	5775	1864.07508483549	1
0	5781	1865.988099547603	2
0	5784	1866.724715927234	3
0	5787	1868.157448088778	2
0	5793	1869.833892709138	1
0	5798	1871.148433778366	0
0	5809	1874.152223704674	1
0	5810	1875.084287368871	0
0	5837	1881.76570074713	1
0	5841	1885.377588494255	2
0	5847	1886.643068747425	1
0	5853	1887.226618249877	2
0	5856	1887.893763244969	3
0	5857	1888.091401765826	2
0	5863	1888.396958078948	3
0	5864	1888.432575278076	2
0	5870	1888.584484095724	3
0	5873	1895.945483725925	2
0	5879	1895.983991169151	3
0	5883	1897.680980212765	4
0	5887	1901.646558337532	3
0	5892	1901.735571573255	2
0	5898	1902.554694028318	3
0	5902	1905.828635494117	2
0	5909	1908.493974875433	3
0	5910	1908.522468116639	2
0	5921	1910.434626050231	1
0	5932	1914.427872983532	2
0	5934	1920.120641280453	3
0	5940	1921.842042150281	4
0	5941	1923.256769675266	3
0	5951	1924.555668150169	4
0	5954	1925.98538361684	5
0	5955	1926.596807851553	4
0	5960	1928.211203229249	3
0	5965	1928.371306776642	2
0	5971	1928.690802239242	3
0	5976	1930.010706057097	4
0	5977	1930.623422052011	3
0	5983	1931.12201973312	4
0	5986	1931.903777928993	3
0	5993	1938.549685246886	2
0	6000	1946.257872697212	1
0	6005	1946.290153076043	0
0	6015	1952.081669864053	1
0	6016	1953.419583248685	0
0	6033	1956.383162918813	1
0	6036	1957.187252297882	0
0	6048	1964.057610001688	1
0	6049	1967.398886236614	0
0	6077	1972.964526232055	1
0	6079	1973.691477189944	2
0	6081	1974.208051972883	3
0	6084	1974.620976892319	2
0	6093	1976.01924965308	1
0	6099	1976.588900311931	0
0	6105	1977.048978153879	1
0	6106	1978.832511846672	0
0	6131	1986.35108838263	1
0	6133	1989.840335138099	0
0	6140	1991.831364570547	1
0	6144	1993.040563621007	2
0	6146	1994.219267044841	3
0	6148	1996.846095187194	4
0	6152	1999.903230065182	5
0	6156	2000.947192889489	6
0	6157	2004.846947045789	5
0	6162	2004.858414799671	4
0	6169	2006.746901701841	3
0	6175	2006.859741674046	4
0	6176	2008.09683829709	3
0	6184	2010.835181231818	4
0	6191	2014.283799946171	3
0	6196	2017.696986557538	2
0	6204	2018.743172284681	3
0	6206	2019.555646959491	2
0	6217	2024.571014240096	3
0	6220	2026.397850891853	2
0	6225	2026.661185923682	1
0	6232	2028.375717161411	0
0	6238	2028.901821993683	1
0	6241	2030.960049878137	2
0	6242	2031.981291087736	1
0	6248	2033.086575103063	0
0	6274	2041.580215111422	1
0	6281	2046.233595491803	0
0	6287	2046.826765253023	1
0	6288	2046.839898742859	0
0	6303	2049.883437277827	1
0	6305	2052.071411833237	2
0	6307	2052.387929510234	3
0	6314	2057.155616384032	2
0	6321	2058.326375455667	3
0	6323	2058.837434047461	4
0	6325	2059.173349155278	5
0	6326	2060.477225137085	4
0	6333	2061.85927055059	5
0	6334	2063.871800549238	4
0	6341	2064.30719528974	5
0	6342	2065.569998741844	4
0	6348	2065.590899548808	5
0	6350	2066.796934116934	4
0	6356	2067.448001168565	3
0	6361	2067.557033177662	2
0	6369	2068.996204703305	1
0	6374	2069.041155912745	0
0	6380	2069.454907278072	1
0	6381	2070.597927058878	0
0	6389	2072.394021958728	1
0	6390	2072.540223654919	0
0	6396	2072.547833626782	1
0	6397	2072.761770086514	0
0	6426	2080.871814222836	1
0	6427	2081.921088755085	0
0	6436	2082.927200819684	1
0	6438	2083.186421800767	2
0	6441	2083.377142444186	1
0	6448	2084.285165309691	0
0	6486	2092.867436655645	1
0	6488	2093.000061717877	2
0	6491	2094.090975945131	1
0	6501	2096.170321238424	0
0	6512	2099.212885566441	1
0	6514	2100.21299240963	2
0	6516	2101.451068701114	3
0	6519	2102.917175134747	2
0	6526	2103.621936841648	1
0	6531	2103.629417407889	0
0	6553	2112.237032085953	1
0	6554	2112.319891984804	0
0	6568	2116.443633025385	1
0	6569	2117.49845403245	0
0	6576	2117.826861838236	1
0	6579	2118.474234333092	0
0	6606	2121.676251979474	1
0	6609	2122.702711196262	0
0	6626	2125.595561199339	1
0	6628	2125.912936823645	2
0	6631	2128.071367874903	1
0	6642	2131.373132068666	2
0	6643	2131.374659141417	1
0	6651	2136.594600001633	0
0	6662	2137.57523423229	1
0	6669	2138.974173045486	2
0	6671	2140.140122427254	3
0	6672	2140.786887498128	2
0	6679	2141.190743586715	3
0	6682	2141.305710467937	2
0	6689	2143.121645425225	3
0	6691	2144.06439138399	4
0	6692	2144.767730848447	3
0	6698	2145.649999662045	2
0	6703	2145.913722322008	1
0	6708	2146.093007429417	0
0	6718	2147.80739472868	1
0	6724	2148.653869904219	2
0	6731	2149.222558371659	3
0	6737	2152.731791218231	4
0	6739	2154.126326007537	5
0	6742	2161.151957470128	4
0	6750	2164.628503593747	3
0	6758	2165.767978012247	2
0	6769	2169.962889698643	3
0	6770	2170.028936625237	2
0	6776	2170.380434781099	3
0	6777	2171.567361886791	2
0	6785	2172.961275045095	3
0	6786	2176.152856350275	2
0	6792	2176.185956965884	3
0	6794	2176.368421147187	4
0	6797	2178.983114943941	5
0	6798	2179.030944381462	4
0	6804	2179.192228652641	5
0	6806	2180.033977543403	4
0	6813	2181.064101419288	3
0	6820	2182.545606422173	4
0	6821	2183.086785260726	3
0	6826	2183.348545190127	2
0	6831	2183.379882926469	1
0	6836	2183.576271500999	0
0	6871	2194.934671563517	1
0	6874	2197.314106286568	2
0	6876	2198.562753591842	1
0	6882	2200.003351245783	2
0	6885	2201.353698074389	3
0	6886	2201.83609942096	2
0	6892	2202.338106003919	3
0	6896	2203.085273632261	4
0	6898	2203.341384773822	5
0	6900	2204.640357759263	4
0	6905	2205.277799366782	3
0	6910	2206.016415253318	2
0	6917	2206.858140157151	3
0	6918	2209.713688300808	2
0	6924	2210.006629921526	1
0	6932	2211.848456426567	0
0	6946	2215.397928611682	1
0	6948	2215.420016186837	2
0	6952	2221.972604650431	1
0	6958	2222.374389506601	2
0	6959	2222.411288184746	1
0	6965	2222.942625660262	0
0	6982	2228.327612032616	1
0	6983	2228.401076528098	0
0	6989	2228.461258194844	1
0	6991	2229.275174994993	2
0	6993	2229.444060148899	3
0	6994	2229.528161352483	2
0	6999	2229.692914775178	1
0	7006	2230.328837055163	2
0	7007	2231.184863696747	1
0	7011	2233.453817451317	2
0	7015	2234.644464117081	3
0	7017	2234.942028175789	2
0	7026	2236.409745455713	3
0	7029	2238.1742813139	2
0	7036	2239.530859961576	1
0	7041	2239.834158585465	0
0	7053	2240.550992477657	1
0	7056	2241.585517942501	0
0	7062	2242.059225476887	1
0	7064	2242.889328690976	0
0	7087	2248.366523236962	1
0	7089	2249.164704466825	2
0	7090	2249.662391413947	1
0	7096	2250.605144528691	0
0	7102	2251.598253736431	1
0	7104	2254.16974015656	0
0	7118	2258.880157305308	1
0	7119	2258.892380551453	0
0	7137	2262.34074617651	1
0	7138	2263.106334631525	0
0	7145	2264.437676007994	1
0	7147	2266.892636514315	2
0	7150	2269.686435557526	1
0	7157	2271.942476800446	2
0	7159	2271.957224450434	3
0	7161	2272.17298210055	4
0	7162	2275.436320033307	3
0	7167	2275.492745505271	2
0	7174	2276.171210469753	1
0	7179	2276.355837745314	0
0	7186	2276.972989431639	1
0	7187	2277.491845359345	0
0	7199	2280.532696405848	1
0	7200	2281.728227855166	0
0	7207	2286.032620778346	1
0	7212	2292.755613301865	0
0	7218	2293.384684275004	1
0	7219	2293.494192103611	0
0	7225	2294.719779520836	1
0	7228	2301.860384903424	0
0	7236	2306.889293609407	1
0	7237	2307.31480707625	0
0	7260	2312.19782954482	1
0	7261	2314.144784653627	0
0	7297	2325.066097888908	1
0	7300	2328.481724038677	0
0	7325	2338.363562669262	1
0	7331	2341.162758580929	2
0	7332	2341.907288830952	1
0	7339	2344.03726659669	2
0	7343	2346.237691736446	3
0	7344	2347.189282876422	2
0	7352	2350.640199494802	1
0	7361	2353.893760181048	2
0	7365	2356.069437940608	1
0	7370	2359.833246181519	0
0	7379	2361.21048274722	1
0	7381	2362.241175749516	0
0	7390	2364.357547165255	1
0	7393	2365.050937979158	0
0	7399	2365.323425668663	1
0	7402	2365.760017714267	0
0	7417	2373.982770844373	1
0	7419	2374.024711344159	2
0	7420	2375.841784992557	1
0	7425	2375.98604663854	0
0	7431	2376.33304223454	1
0	7435	2380.901163074439	2
0	7436	2381.023416853033	1
0	7442	2383.872216799078	0
0	7456	2388.391075816747	1
0	7457	2390.157933226041	0
0	7490	2400.532767790109	1
0	7491	2402.321904721223	0
0	7497	2402.587337759175	1
0	7498	2403.320743967189	0
0	7506	2404.492514811382	1
0	7508	2406.986203645465	2
0	7510	2407.809855762052	3
0	7512	2410.718204373219	4
0	7516	2411.839641492141	5
0	7517	2412.96815218706	4
0	7526	2416.92446683978	5
0	7530	2418.752276287979	6
0	7531	2421.493150154127	5
0	7538	2423.140599486598	4
0	7543	2423.401140826233	3
0	7549	2427.47279431475	2
0	7555	2428.625286068731	3
0	7559	2428.859301433978	4
0	7560	2429.192102089523	3
0	7565	2429.408795913334	2
0	7571	2429.4539666437	3
0	7573	2429.583275652875	4
0	7575	2429.601287588814	5
0	7578	2429.952065058652	4
0	7584	2431.896726267462	5
0	7588	2432.67629999194	4
0	7593	2432.860958319109	3
0	7603	2433.938805051546	4
0	7610	2436.882532195679	5
0	7613	2437.982191639878	4
0	7619	2439.426320739133	5
0	7625	2447.636496425915	6
0	7627	2448.11643494188	7
0	7629	2449.506103504885	8
0	7632	2450.742999043597	7
0	7637	2450.809859121684	6
0	7646	2453.317206728244	5
0	7651	2453.53675703817	4
0	7664	2460.275486437746	5
0	7666	2460.58421296737	6
0	7667	2465.43178894781	5
0	7673	2465.944536105844	4
0	7678	2466.844410631451	3
0	7687	2468.446639647601	4
0	7688	2468.932629251496	3
0	7693	2469.07734740645	2
0	7699	2469.335636715213	3
0	7702	2470.930657354289	2
0	7709	2476.493182200547	1
0	7716	2478.294347083779	0
0	7729	2481.038059017641	1
0	7732	2483.058527108755	0
0	7741	2486.266321425862	1
0	7743	2486.620612870232	0
0	7754	2486.829409387261	1
0	7757	2489.296596437907	0
0	7764	2491.720419633747	1
0	7766	2492.176865387953	2
0	7767	2494.84550753693	1
0	7773	2495.262136051873	0
0	7785	2496.945438748849	1
0	7788	2498.990765620316	2
0	7790	2499.004696852503	3
0	7791	2499.25855145514	2
0	7799	2500.053158986168	3
0	7800	2500.544704458613	2
0	7805	2500.571541353273	1
0	7814	2506.486675275941	0
0	7828	2516.697959723449	1
0	7829	2517.337603786819	0
0	7852	2525.129752759762	1
0	7853	2527.435678149622	0
0	7864	2529.123143652151	1
0	7865	2529.834838905924	0
0	7883	2540.009937472479	1
0	7884	2543.819451689132	0
0	7893	2548.257613177671	1
0	7894	2548.722990653342	0
0	7900	2549.276140653812	1
0	7901	2551.866032258169	0
0	7927	2562.817211396131	1
0	7928	2562.960070131611	0
0	7952	2574.313888776229	1
0	7955	2578.753184939885	0
0	7961	2579.18069739291	1
0	7963	2580.029629793062	0
0	7975	2586.745703222225	1
0	7976	2586.980420996466	0
0	7982	2589.247418492366	1
0	7984	2589.669351872729	2
0	7989	2589.993182111619	3
0	7990	2592.709867237815	2
0	7995	2593.130407974015	1
0	8001	2596.820339188464	0
0	8030	2606.075965032092	1
0	8031	2608.211871153994	0
0	8055	2616.884341033265	1
0	8056	2616.890713701399	0
0	8066	2620.731809269122	1
0	8068	2621.814558158078	2
0	8070	2621.891563280895	3
0	8074	2624.636110306394	4
0	8075	2626.140000531203	3
0	8080	2626.464780877381	2
0	8087	2628.243099287101	1
0	8096	2630.604640075238	2
0	8099	2634.795876302278	1
0	8107	2636.156466203459	2
0	8109	2637.284169336933	3
0	8111	2638.180265137136	4
0	8115	2639.24972658517	3
0	8123	2640.77026566782	2
0	8129	2641.929286788663	1
0	8134	2642.023051120189	0
0	8145	2642.625429492306	1
0	8147	2643.720621230655	0
0	8174	2648.966397562906	1
0	8176	2651.833502232992	2
0	8179	2653.61157074458	1
0	8184	2654.010456165681	0
0	8191	2654.022365643543	1
0	8195	2658.949798841978	0
0	8218	2665.050593102981	1
0	8220	2665.530192919583	2
0	8222	2667.288332445099	3
0	8224	2667.428188338166	4
0	8225	2668.091640295713	3
0	8231	2669.684634000372	2
0	8239	2670.727966512152	3
0	8242	2671.713152936868	2
0	8248	2672.972540168542	3
0	8249	2673.495259388717	2
0	8257	2674.872971529421	1
0	8263	2676.522710626522	0
0	8269	2676.526634301731	1
0	8270	2677.772790035039	0
0	8284	2681.272175001739	1
0	8286	2681.291054159283	2
0	8288	2681.319892782197	3
0	8290	2681.722822203402	2
0	8299	2684.631255686798	3
0	8302	2685.215679006784	2
0	8310	2686.20372196579	1
0	8316	2686.325155965236	2
0	8318	2689.279317900248	1
0	8323	2689.962091472054	0
0	8329	2690.128974325485	1
0	8330	2690.485040375175	0
0	8342	2691.893800851366	1
0	8344	2692.175278433466	2
0	8345	2693.236609250799	1
0	8354	2698.782300632262	0
0	8361	2700.215838249938	1
0	8364	2701.64949227438	0
0	8376	2702.95691891224	1
0	8379	2705.278572815829	0
0	8399	2708.721955855297	1
0	8400	2709.813874796376	0
0	8406	2711.210049715276	1
0	8408	2713.363639199715	2
0	8413	2717.830818731082	1
0	8419	2717.889097069765	2
0	8420	2718.140042558409	1
0	8426	2718.400683914768	2
0	8428	2719.068239603691	1
0	8434	2719.511783504827	0
0	8449	2722.858692233649	1
0	8450	2723.17224088876	0
0	8478	2730.564996904046	1
0	8483	2733.836195129228	0
0	8506	2747.29151569526	1
0	8513	2752.105301632775	0
0	8546	2757.809050465756	1
0	8549	2758.36849561342	0
0	8558	2759.076857858482	1
0	8563	2762.218222874782	2
0	8564	2762.893496345594	1
0	8571	2766.301590662788	2
0	8573	2769.065513273159	3
0	8577	2773.127762240436	4
0	8578	2773.202487964449	3
0	8585	2774.626032890146	4
0	8588	2775.909188835351	5
0	8590	2776.64591612888	6
0	8591	2777.065891148541	5
0	8597	2777.42941239486	4
0	8603	2778.538600572413	5
0	8606	2779.765621879673	6
0	8608	2781.608681851657	7
0	8609	2783.059222900196	6
0	8614	2783.888768093203	5
0	8620	2784.125808849731	6
0	8622	2786.395696507701	5
0	8627	2786.586792581918	4
0	8632	2787.2470792522	3
0	8639	2789.219368011394	2
0	8647	2796.781086849703	1
0	8652	2797.870589832296	0
0	8663	2801.40609917324	1
0	8666	2804.807412663715	2
0	8668	2806.429397207092	1
0	8677	2808.168627222893	0
0	8685	2809.683562027195	1
0	8686	2812.275013268367	0
0	8694	2813.370609667317	1
0	8695	2815.361833320782	0
0	8740	2823.338901277693	1
0	8747	2836.243248886979	0
0	8778	2845.439298671435	1
0	8783	2847.989518559338	0
0	8792	2849.292127417	1
0	8794	2849.47164343835	2
0	8799	2850.677107017315	1
0	8804	2850.684746755698	0
0	8813	2852.653964821338	1
0	8815	2854.716261161296	2
0	8817	2854.947523780557	3
0	8820	2855.174894915874	2
0	8833	2859.990750255824	3
0	8835	2860.12412580029	4
0	8837	2861.092763976475	3
0	8844	2862.277806166165	4
0	8847	2863.819510041309	3
0	8852	2864.183419749639	2
0	8858	2864.214613477271	3
0	8862	2867.930195413768	4
0	8864	2867.944586766811	5
0	8866	2869.243221409585	6
0	8868	2870.926242533359	7
0	8869	2874.725957523017	6
0	8874	2874.9923183878	5
0	8880	2876.211894643873	6
0	8884	2878.118843672483	5
0	8892	2879.197074248171	6
0	8893	2880.915140220538	5
0	8899	2881.27049693228	6
0	8900	2881.300756881958	5
0	8906	2883.203965470431	4
0	8913	2883.33003136281	5
0	8914	2883.581648968385	4
0	8921	2885.119496712017	5
0	8923	2885.630394251221	4
0	8929	2892.305241652771	3
0	8934	2893.575783676071	2
0	8941	2894.245410865047	3
0	8942	2894.349378099974	2
0	8956	2896.84802145446	1
0	8963	2897.172428721802	2
0	8972	2899.58710732411	3
0	8973	2901.133315884945	2
0	8981	2907.555745045407	3
0	8982	2907.853892089608	2
0	8989	2908.397854066625	3
0	8990	2908.744798897189	2
0	8995	2909.043524279969	1
0	9000	2909.16004875405	0
0	9012	2912.408424553083	1
0	9013	2913.296184186095	0
0	9021	2915.481386076166	1
0	9024	2916.862051026283	2
0	9026	2917.117840597197	3
0	9027	2918.74563238396	2
0	9032	2919.113771319685	1
0	9037	2919.121451942607	0
0	9063	2925.150440767416	1
0	9067	2927.622343932032	0
0	9094	2936.843269314597	1
0	9095	2937.993233229712	0
0	9117	2943.486665204344	1
0	9119	2944.205262574407	2
0	9120	2944.893687571412	1
0	9128	2946.244719408769	2
0	9131	2946.765903602907	3
0	9132	2948.314487958976	2
0	9138	2949.041336199466	1
0	9145	2950.502897123754	0
0	9154	2951.099203423669	1
0	9156	2951.207599716589	2
0	9159	2953.668728295254	1
0	9165	2953.900078961001	2
0	9167	2955.500536315799	1
0	9174	2956.736535968329	2
0	9177	2958.849678654638	1
0	9182	2958.872422702001	0
0	9188	2959.111618123494	1
0	9192	2959.913306774158	2
0	9195	2961.041217578533	1
0	9202	2963.230453406105	0
0	9208	2964.022033879345	1
0	9210	2964.279786484177	2
0	9213	2965.604706557922	3
0	9215	2966.764729646825	4
0	9217	2966.805466163087	5
0	9218	2968.014715576301	4
0	9224	2968.032974282454	5
0	9226	2968.150703798568	6
0	9230	2969.07800681164	7
0	9231	2969.42985799744	6
0	9236	2971.99885988991	5
0	9242	2974.586406283001	4
0	9249	2975.014537798863	5
0	9250	2975.378847814922	4
0	9258	2977.452092102261	5
0	9259	2977.779158265892	4
0	9265	2980.741397632258	3
0	9271	2981.028664325967	4
0	9273	2981.09457617703	5
0	9276	2982.552267099904	4
0	9281	2984.618455278921	3
0	9288	2985.862640416309	2
0	9294	2989.838014008497	3
0	9295	2990.739240307732	2
0	9299	2991.014951930042	3
0	9306	2996.915473814372	2
0	9312	2997.529219555299	3
0	9313	2997.668742478687	2
0	9320	2999.138990899168	1
0	9327	3002.766484292031	0
0	9378	3012.01807577634	1
0	9381	3013.951376090334	0
0	9389	3015.977562529352	1
0	9390	3019.777387148225	0
0	9402	3021.529399415466	1
0	9405	3023.33646622461	0
0	9413	3024.293082691833	1
0	9416	3025.058849650211	0
0	9438	3027.512777808431	1
0	9442	3030.332638584415	2
0	9446	3033.754249736263	3
0	9450	3034.719701550077	4
0	9451	3034.881522338205	3
0	9458	3037.609002277903	4
0	9460	3038.591845860924	5
0	9464	3040.31812206695	6
0	9465	3040.820559114321	5
0	9471	3041.651101052473	4
0	9477	3042.007248965328	5
0	9478	3042.875305946033	4
0	9486	3043.60075962298	3
0	9491	3043.75529138389	2
0	9499	3045.709624697445	3
0	9502	3046.978810735845	2
0	9507	3047.032048722471	1
0	9519	3048.358887466885	2
0	9522	3049.175716668449	3
0	9523	3049.392355042134	2
0	9532	3051.803210317077	3
0	9533	3052.778467331118	2
0	9540	3054.133173261338	3
0	9546	3055.399861175416	2
0	9554	3059.647805897196	1
0	9562	3061.498400206567	2
0	9564	3061.800193400036	3
0	9567	3065.630173178569	2
0	9573	3066.15100749355	3
0	9575	3067.788318829325	4
0	9578	3068.934458169483	5
0	9579	3069.177681699565	4
0	9586	3073.934408322642	3
0	9593	3076.306914410492	2
0	9602	3081.868309693033	3
0	9604	3081.892133382423	4
0	9605	3083.618923487202	3
0	9612	3087.349316558222	4
0	9613	3087.37962330934	3
0	9618	3091.087217982582	2
0	9624	3091.263920354583	3
0	9625	3091.356493951404	2
0	9634	3095.264463544895	3
0	9637	3096.866723792588	2
0	9643	3097.464207617218	1
0	9650	3098.037946363004	0
0	9661	3101.527820011118	1
0	9663	3102.784016049648	0
0	9669	3104.178146008233	1
0	9671	3105.55073120831	0
0	9702	3110.462920984459	1
0	9706	3117.266067099047	0
0	9720	3123.453262328412	1
0	9723	3126.116071567876	0
0	9729	3126.254034314107	1
0	9730	3126.33439693036	0
0	9746	3136.903408546064	1
0	9751	3138.326843974853	0
0	9767	3144.989943079176	1
0	9768	3146.825607116722	0
0	9774	3147.189976445223	1
0	9776	3147.9689449786	2
0	9781	3149.307795163602	3
0	9782	3151.030910959939	2
0	9788	3151.345679123902	1
0	9795	3152.015899397635	2
0	9797	3152.485063839834	3
0	9799	3155.03001411012	2
0	9804	3155.731417849807	1
0	9815	3157.19034842433	2
0	9816	3157.576083349183	1
0	9822	3161.673795363447	0
0	9828	3162.00016463247	1
0	9831	3165.741203894544	2
0	9832	3170.573885862434	1
0	9838	3172.004109330814	0
0	9844	3172.45137143897	1
0	9845	3172.501460749004	0
0	9858	3176.516806799142	1
0	9859	3178.806062373392	0
0	9871	3181.229806397741	1
0	9873	3184.17122023507	0
0	9887	3187.401850804572	1
0	9890	3187.681687353516	0
0	9896	3187.827964537167	1
0	9897	3188.259954314245	0
0	9908	3189.720501630709	1
0	9910	3190.494399096987	2
0	9916	3195.35029193532	1
0	9921	3195.382019017625	0
0	9934	3199.857931636955	1
0	9935	3200.688557667701	0
0	9949	3202.024215998547	1
0	9953	3203.475473772269	2
0	9958	3206.117381018741	3
0	9961	3212.568735019723	2
0	9966	3212.905049401151	1
0	9971	3213.78509258225	0
0	9982	3217.008121600087	1
0	9983	3217.639778387457	0
0	9989	3218.090258114664	1
0	9992	3219.637913729969	2
0	9994	3220.072109662678	3
0	9995	3221.753768013822	2
0	10001	3222.781923058496	1
0	10007	3224.405014294555	0
0	10017	3226.483447527645	1
0	10020	3226.807979875919	0
0	10031	3229.416354431245	1
0	10035	3231.013041370594	2
0	10039	3231.705124224777	3
0	10041	3232.042263927051	2
0	10046	3234.450598385072	1
0	10051	3235.997579078129	0
0	10064	3237.589584579604	1
0	10070	3239.608198947918	2
0	10075	3240.896214651182	1
0	10081	3241.593911332176	2
0	10082	3243.118734464666	1
0	10090	3246.9193132111	2
0	10093	3250.010210041393	1
0	10098	3251.447718671722	0
0	10124	3258.376839645098	1
0	10125	3259.448732260812	0
0	10141	3260.51207463631	1
0	10143	3262.746288517381	0
0	10162	3268.766034806572	1
0	10163	3269.138520826881	0
0	10174	3269.891977082363	1
0	10175	3270.261190817464	0
0	10195	3274.101030007567	1
0	10197	3274.21791357406	2
0	10199	3275.153048359366	1
0	10206	3275.544449125542	2
0	10207	3276.252865373741	1
0	10214	3278.187072572335	2
0	10215	3278.384684338265	1
0	10222	3278.706371634677	2
0	10223	3279.189787102422	1
0	10232	3281.727242060469	2
0	10234	3283.31941120602	3
0	10236	3284.153170174397	4
0	10238	3285.393808538322	5
0	10241	3287.405741724754	4
0	10247	3289.020959814452	3
0	10252	3290.792412593189	2
0	10259	3291.924376970049	1
0	10264	3292.547860395531	0
0	10288	3298.57725592798	1
0	10294	3301.355227550623	2
0	10296	3301.66333800238	3
0	10298	3301.951779019988	4
0	10299	3302.290960237898	3
0	10305	3302.334511071886	4
0	10308	3303.687035033501	3
0	10313	3307.25964813671	2
0	10318	3307.296704116191	1
0	10323	3308.094555093799	0
0	10330	3315.482071546367	1
0	10331	3316.846892916584	0
0	10355	3324.337209392093	1
0	10357	3327.20499073316	0
0	10364	3328.748010841369	1
0	10366	3330.312370987141	2
0	10371	3331.314475870681	1
0	10379	3333.844157107186	2
0	10384	3336.703941809356	1
0	10390	3336.706195537888	2
0	10391	3337.08314718825	1
0	10402	3339.999408579888	2
0	10404	3343.032355599458	3
0	10406	3343.521799074077	4
0	10408	3343.788256379792	5
0	10409	3344.165063269617	4
0	10416	3345.402674743465	3
0	10421	3346.192696449264	2
0	10430	3355.086958331674	1
0	10435	3355.108924129787	0
0	10441	3355.720477284201	1
0	10444	3357.608287378931	0
0	10478	3367.418001163022	1
0	10481	3368.649731849949	0
0	10493	3379.442067833367	1
0	10495	3382.156084685774	2
0	10497	3383.399057071478	3
0	10502	3386.80969448429	2
0	10509	3388.862036139848	1
0	10514	3389.113268704019	0
0	10525	3391.090995535597	1
0	10527	3392.846666788417	0
0	10538	3395.908501227712	1
0	10540	3396.446574042689	0
0	10563	3405.261961459589	1
0	10565	3406.090404732237	2
0	10570	3409.008006127848	1
0	10576	3415.262610153657	0
0	10605	3430.725077946082	1
0	10606	3430.757274019095	0
0	10638	3445.017767617215	1
0	10644	3447.16830095713	0
0	10665	3455.792047680268	1
0	10667	3456.319021431522	2
0	10669	3459.259707206959	3
0	10670	3459.308222480862	2
0	10676	3459.451161156602	3
0	10679	3459.798653805413	2
0	10684	3460.115413565189	1
0	10690	3460.172788227343	2
0	10691	3460.462690442278	1
0	10696	3461.507970141238	0
0	10707	3465.164859984564	1
0	10708	3465.500354554908	0
0	10718	3466.074719220237	1
0	10726	3469.830106182839	0
0	10732	3470.470440020465	1
0	10733	3470.514285879665	0
0	10752	3476.574311798615	1
0	10755	3478.109575388945	0
0	10761	3478.554339197997	1
0	10762	3478.660611064717	0
0	10782	3483.353638691268	1
0	10790	3487.036353525607	2
0	10791	3487.612072003239	1
0	10796	3487.963097421787	0
0	10814	3499.148247397079	1
0	10817	3499.415339521488	0
0	10823	3500.13186610324	1
0	10824	3501.265668852449	0
0	10851	3511.157096152845	1
0	10852	3511.260985413913	0
0	10865	3515.389923676665	1
0	10866	3516.108419441243	0
0	10880	3520.319852912538	1
0	10884	3521.281911448171	2
0	10889	3524.753602431353	1
0	10895	3524.979971397691	2
0	10896	3525.737348778058	1
0	10902	3526.195410578419	2
0	10904	3526.36597491282	3
0	10911	3532.944081945613	4
0	10915	3535.13248226213	5
0	10917	3536.730648366236	6
0	10918	3537.312026389718	5
0	10924	3537.37950881576	6
0	10927	3538.842838484719	7
0	10929	3540.559406692976	8
0	10936	3549.926586008648	7
0	10941	3550.098616913031	6
0	10947	3550.786872986646	5
0	10955	3551.831907961282	6
0	10959	3556.446360395074	5
0	10965	3558.652188751908	4
0	10972	3563.709930836593	3
0	10977	3564.058625923135	2
0	10982	3564.306639302616	1
0	10987	3566.152804841817	0
0	10994	3568.168481571502	1
0	10996	3568.949714561276	2
0	10997	3569.199750206506	1
0	11002	3569.229196012419	0
0	11013	3570.291203691061	1
0	11015	3570.323410026339	2
0	11017	3571.391831362896	3
0	11018	3571.573148687612	2
0	11022	3572.887466270864	3
0	11027	3575.506198418311	2
0	11032	3575.869664710959	1
0	11036	3577.708753327783	2
0	11039	3579.628019952961	1
0	11044	3580.910524003751	0
0	11059	3585.459158510415	1
0	11061	3585.498820152158	2
0	11062	3585.540323973982	1
0	11068	3587.415643432555	0
0	11098	3592.791019507549	1
0	11100	3593.020976029955	2
0	11107	3596.098667361157	3
0	11109	3596.296282072046	4
0	11110	3596.739524627221	3
0	11116	3597.975064360261	2
0	11122	3599.989427690121	1
0	11129	3601.831577455575	2
0	11130	3603.575530956492	1
0	11136	3606.607863841261	0
0	11144	3606.955839775699	1
0	11145	3607.642931084832	0
0	11152	3610.105706859396	1
0	11156	3612.018906082326	0
0	11170	3615.035614346106	1
0	11171	3616.242625811538	0
0	11196	3620.649386313275	1
0	11199	3622.075527271061	0
0	11207	3625.477256387265	1
0	11208	3627.071677462643	0
0	11214	3627.266076272163	1
0	11216	3627.886337208504	2
0	11218	3630.083517141192	3
0	11221	3630.315292666703	2
0	11227	3632.147998836105	1
0	11233	3632.596429177109	0
0	11253	3642.20552519343	1
0	11255	3642.846114697478	2
0	11256	3643.270578341315	1
0	11263	3645.730768977971	2
0	11265	3646.377266371464	3
0	11266	3649.279834015852	2
0	11273	3650.547785473069	1
0	11279	3650.789382953646	2
0	11281	3651.258246110774	3
0	11282	3651.653100689872	2
0	11288	3652.266910911358	3
0	11292	3653.819293165811	2
0	11299	3656.022237549282	1
0	11309	3656.602702086902	2
0	11310	3657.015373235688	1
0	11315	3657.077658738611	0
0	11335	3659.300271075721	1
0	11343	3662.746878112658	2
0	11345	3664.36456238833	1
0	11353	3665.877582740624	2
0	11357	3666.423117410116	3
0	11358	3666.477481269789	2
0	11365	3669.526645454308	1
0	11370	3671.169681034588	0
0	11391	3675.511403754161	1
0	11395	3676.562539413623	0
0	11417	3681.351472112886	1
0	11420	3682.08285715337	0
0	11428	3683.519900972152	1
0	11431	3687.093301503134	0
0	11447	3689.880561599094	1
0	11450	3694.144001550307	0
0	11466	3699.190955957254	1
0	11469	3700.879910311142	0
0	11478	3702.225206421598	1
0	11485	3704.889076926919	2
0	11487	3705.129867191707	3
0	11490	3707.705475616207	2
0	11501	3711.910963102367	1
0	11509	3713.988353187807	0
0	11527	3715.622034096432	1
0	11528	3720.31707178827	0
0	11539	3721.664661059	1
0	11544	3723.326235840598	0
0	11550	3724.016811742168	1
0	11552	3725.444747682006	2
0	11556	3729.4629142524	3
0	11559	3730.649820696128	2
0	11565	3733.650045320805	1
0	11570	3733.703943949468	0
0	11587	3735.711081189372	1
0	11589	3737.395776136208	0
0	11629	3745.728399821694	1
0	11630	3747.008597286147	0
0	11651	3752.93133433566	1
0	11653	3753.514324843336	2
0	11656	3754.580044472759	1
0	11662	3754.70685691977	2
0	11670	3758.405822389812	3
0	11671	3763.217181647808	2
0	11679	3764.867552885892	3
0	11681	3764.971264694879	4
0	11683	3768.319317466473	5
0	11691	3776.124655168383	6
0	11693	3780.526239168004	7
0	11694	3781.338617056279	6
0	11700	3782.90238060801	5
0	11705	3783.965156957899	4
0	11711	3784.950921658734	3
0	11717	3785.510213299069	4
0	11719	3787.209798222887	3
0	11726	3788.269254347967	2
0	11735	3789.957249213337	1
0	11741	3790.485483230237	0
0	11748	3791.035569323088	1
0	11749	3791.927324972268	0
0	11755	3792.253751630181	1
0	11756	3792.718111421843	0
0	11764	3798.860013602493	1
0	11767	3800.701092734871	0
0	11773	3800.925739813039	1
0	11775	3800.929786330445	2
0	11776	3802.845691731163	1
0	11782	3805.446625817859	0
0	11788	3805.964258591748	1
0	11789	3806.31334330099	0
0	11809	3813.511211352924	1
0	11811	3814.063922663544	2
0	11816	3815.966092374191	3
0	11818	3817.540476331307	2
0	11824	3818.661607030267	1
0	11831	3821.654306625585	2
0	11832	3827.288112750622	1
0	11837	3828.013739845852	0
0	11856	3831.287762982989	1
0	11858	3831.854394481183	2
0	11862	3836.35984367416	3
0	11864	3838.879977257387	4
0	11865	3839.841388937735	3
0	11871	3840.334906163962	2
0	11878	3842.055016911819	3
0	11880	3845.303860415515	4
0	11881	3845.881370984755	3
0	11888	3847.544239112141	4
0	11889	3847.886715368599	3
0	11895	3850.629516826591	2
0	11903	3851.180980271272	1
0	11911	3855.933508950011	2
0	11914	3856.824614596718	1
0	11919	3856.963688741274	0
0	11927	3857.841800654752	1
0	11929	3860.352327039082	0
0	11965	3868.587419153986	1
0	11966	3869.637799735776	0
0	11972	3869.672372054161	1
0	11974	3870.270962443606	2
0	11977	3871.44088055681	3
0	11979	3871.805725884002	4
0	11980	3872.288826629317	3
0	11986	3873.455671360111	2
0	11991	3874.135483029584	1
0	11997	3875.92976885139	2
0	11998	3875.966217021792	1
0	12004	3878.164909593441	0
0	12011	3879.656334374314	1
0	12015	3881.176281637453	2
0	12017	3882.248349532073	3
0	12019	3888.962401369449	2
0	12025	3891.971503860999	1
0	12030	3893.849052524117	0
0	12043	3896.309369772572	1
0	12045	3897.16343930056	0
0	12058	3897.963453458891	1
0	12060	3898.308587244935	0
0	12074	3902.645919124059	1
0	12075	3903.806427527161	0
0	12081	3903.917136036081	1
0	12082	3905.761846411007	0
0	12091	3908.915052595446	1
0	12095	3909.686818510485	0
0	12112	3913.555053316291	1
0	12113	3913.635209977352	0
0	12127	3918.035406043949	1
0	12128	3918.903578413536	0
0	12134	3919.670978392531	1
0	12135	3919.907634205673	0
0	12141	3919.944449723533	1
0	12143	3920.20993398119	2
0	12145	3920.60303366603	3
0	12150	3925.021236504343	2
0	12155	3925.887321645599	1
0	12161	3926.108198949485	2
0	12162	3926.991124705952	1
0	12167	3927.358121767363	0
0	12186	3931.024078509677	1
0	12188	3931.639676823128	0
0	12195	3932.478524528152	1
0	12199	3934.233280814618	2
0	12200	3934.458717599754	1
0	12206	3935.280890752372	0
0	12221	3937.433576547584	1
0	12225	3942.085319081056	2
0	12229	3943.344798939386	3
0	12230	3944.674143172352	2
0	12242	3948.432591170136	3
0	12248	3952.535269099617	4
0	12252	3953.712506298554	5
0	12253	3953.93832001685	4
0	12260	3955.149287109408	5
0	12261	3955.368792925761	4
0	12267	3959.309315489768	3
0	12273	3961.355297771576	2
0	12278	3961.587949936991	1
0	12283	3962.131980107933	0
0	12290	3963.503413296185	1
0	12292	3964.239093956848	2
0	12294	3967.245714706599	1
0	12300	3968.052501457413	0
0	12312	3969.382755896329	1
0	12313	3970.586724019857	0
0	12328	3972.726764686652	1
0	12332	3973.255789225832	2
0	12334	3973.764999198934	1
0	12339	3974.816403329459	0
0	12348	3977.946617602601	1
0	12354	3981.717599162919	2
0	12355	3984.009861902868	1
0	12365	3986.227983833869	2
0	12366	3986.255967203897	1
0	12371	3986.742670367296	0
0	12380	3988.114301374974	1
0	12382	3990.057859682833	0
0	12418	3998.643686478428	1
0	12420	3999.449071102509	2
0	12422	4001.690822335348	3
0	12425	4003.944240028898	2
0	12431	4007.07377929032	1
0	12437	4008.271772908728	0
0	12449	4009.296437955553	1
0	12450	4011.306706707396	0
0	12456	4012.2105138248	1
0	12458	4012.675692693789	0
0	12465	4014.42812118767	1
0	12470	4016.044525760163	2
0	12471	4016.394604328962	1
0	12478	4019.717878887952	2
0	12479	4020.774402682856	1
0	12484	4021.495237095729	0
0	12505	4026.492018196793	1
0	12508	4027.2791720133	0
0	12514	4028.311937556147	1
0	12520	4031.003699873754	0
0	12529	4034.250695565305	1
0	12531	4035.087263411799	2
0	12532	4035.147549824885	1
0	12538	4035.252399647306	2
0	12542	4039.1180505389	1
0	12547	4039.262093587986	0
0	12560	4042.819243127163	1
0	12562	4044.870648243552	0
0	12584	4049.655342344994	1
0	12585	4050.432971542339	0
0	12593	4051.275583001825	1
0	12595	4051.691012433312	0
0	12621	4058.251515743293	1
0	12626	4062.434205247063	0
0	12643	4068.641270142858	1
0	12647	4075.819784763438	2
0	12649	4076.261996431758	3
0	12650	4079.544558907918	2
0	12657	4081.440490968812	1
0	12664	4083.824787723534	0
0	12675	4087.626405741069	1
0	12676	4088.512041050795	0
0	12682	4089.334538577491	1
0	12683	4089.631670671465	0
0	12701	4094.510755882013	1
0	12702	4095.125920560742	0
0	12714	4099.023316352294	1
0	12716	4099.294953631969	2
0	12717	4101.045319467158	1
0	12724	4102.149536446128	2
0	12726	4104.96361242436	3
0	12727	4105.132260020704	2
0	12737	4107.870408969343	1
0	12742	4108.148118542709	0
0	12748	4110.850339916296	1
0	12753	4113.069498447379	0
0	12773	4116.441538293463	1
0	12776	4116.671611891702	0
0	12783	4118.058860573749	1
0	12785	4118.745148272784	2
0	12786	4120.671336814409	1
0	12791	4122.304716346881	0
0	12803	4123.46566200541	1
0	12804	4123.732455119405	0
0	12815	4124.018366195397	1
0	12824	4127.018079953847	0
0	12831	4128.407614337461	1
0	12832	4128.982377573861	0
0	12844	4132.211951320807	1
0	12847	4134.139412648318	0
0	12856	4135.27474169529	1
0	12859	4141.3414983873	0
0	12880	4144.589750461554	1
0	12882	4145.22784308204	2
0	12884	4145.98666585719	3
0	12886	4146.115321082446	4
0	12888	4146.9329193079	5
0	12889	4148.317610149167	4
0	12894	4149.437372753681	3
0	12899	4149.697286628839	2
0	12905	4150.380616768356	1
0	12911	4150.538119637327	2
0	12912	4150.985371977028	1
0	12917	4152.276750507574	0
0	12975	4172.965445692227	1
0	12977	4174.183068193033	2
0	12978	4176.704510352856	1
0	12984	4177.53691582785	0
0	12994	4180.826755371863	1
0	12996	4182.072478185626	2
0	12999	4187.802528733905	1
0	13009	4190.667654638459	0
0	13016	4193.665755665727	1
0	13017	4193.798518539256	0
0	13025	4195.838492118479	1
0	13028	4197.676705813856	0
0	13041	4199.427820550827	1
0	13042	4199.784207972842	0
0	13049	4201.789740969394	1
0	13054	4204.197732481562	0
0	13063	4208.338276251267	1
0	13067	4210.335340243499	2
0	13069	4211.254256918502	3
0	13070	4211.52737833442	2
0	13077	4214.156529031932	3
0	13081	4215.785005420763	4
0	13082	4215.84413834333	3
0	13087	4216.248133154249	2
0	13094	4217.655964003923	3
0	13096	4219.642952954894	2
0	13104	4220.367360340189	1
0	13115	4221.648461298678	2
0	13116	4221.895204756097	1
0	13121	4221.960558918298	0
0	13150	4228.017274873235	1
0	13153	4230.533298354115	0
0	13166	4232.837247998132	1
0	13167	4233.277650237287	0
0	13188	4239.88911767131	1
0	13191	4241.419262856162	0
0	13205	4244.612612214007	1
0	13207	4246.811761350326	2
0	13209	4247.239005586805	3
0	13220	4257.544887726217	4
0	13221	4257.959925285674	3
0	13226	4258.695476447903	2
0	13234	4261.156653765036	3
0	13235	4261.70644712556	2
0	13241	4261.778777280251	3
0	13243	4264.201283053562	2
0	13249	4265.706372903261	1
0	13258	4268.736662251302	0
0	13273	4273.859551418899	1
0	13274	4273.988099619806	0
0	13282	4275.751222238823	1
0	13284	4276.973089168549	2
0	13286	4276.999564691341	3
0	13288	4278.238640407707	4
0	13290	4278.996751298905	5
0	13293	4282.659850898276	4
0	13301	4284.699228722349	3
0	13307	4285.59508750105	2
0	13314	4286.917718815387	1
0	13320	4287.431785012263	2
0	13324	4289.326852769854	3
0	13326	4289.375803719521	4
0	13328	4289.845121780708	5
0	13330	4289.897927563012	6
0	13334	4290.997884574685	7
0	13337	4293.50179473195	6
0	13344	4294.618426097772	7
0	13345	4295.368234777367	6
0	13353	4298.282700482135	5
0	13359	4301.042645661085	4
0	13365	4301.581576500281	5
0	13367	4302.855247070033	6
0	13370	4306.317558977051	5
0	13379	4308.217714651073	4
0	13385	4310.048024651978	3
0	13390	4310.169449489185	2
0	13396	4311.776462060786	3
0	13398	4311.99558993287	4
0	13400	4312.01155218186	5
0	13401	4313.138031446699	4
0	13407	4313.715396938681	3
0	13412	4313.934443624783	2
0	13417	4314.002907401329	1
0	13425	4314.927603391728	2
0	13426	4315.583336093491	1
0	13431	4316.775883647152	0
0	13458	4322.686317252518	1
0	13461	4325.599349368183	2
0	13462	4326.279143688342	1
0	13468	4327.274378117441	0
0	13496	4337.637331083766	1
0	13497	4338.35962707418	0
0	13546	4347.391144425932	1
0	13548	4347.478094760268	2
0	13551	4349.068302744476	1
0	13557	4349.422856390662	0
0	13570	4352.371671404144	1
0	13572	4353.592262200555	2
0	13573	4355.18111460324	1
0	13582	4357.096816097711	2
0	13586	4358.189616650593	3
0	13590	4359.961046503639	4
0	13591	4360.626693399952	3
0	13597	4362.637320616565	2
0	13603	4363.763995964782	1
0	13608	4365.291653514583	0
0	13656	4384.460587492684	1
0	13660	4389.586178941477	2
0	13661	4389.628691565813	1
0	13669	4391.215189278668	2
0	13672	4391.871491240813	3
0	13679	4397.826864880874	2
0	13684	4398.038224195641	1
0	13690	4399.771802180137	0
0	13705	4402.075107480372	1
0	13707	4403.789362722641	2
0	13709	4406.444420004147	3
0	13710	4406.944165172818	2
0	13716	4408.523896676941	1
0	13721	4409.197055561581	0
0	13729	4410.890408632559	1
0	13730	4414.232596339007	0
0	13737	4415.03490704056	1
0	13739	4415.096358439699	2
0	13742	4416.404340801572	1
0	13749	4416.755594976969	0
0	13781	4421.858957691938	1
0	13782	4425.605924056115	0
0	13789	4428.516855142251	1
0	13790	4429.390801739464	0
0	13796	4429.391253216079	1
0	13798	4430.15928552094	0
0	13824	4434.726201456903	1
0	13825	4437.039768166376	0
0	13842	4442.145010534933	1
0	13846	4446.290906654768	2
0	13855	4449.889472716731	1
0	13860	4450.155535211144	0
0	13870	4451.818871268148	1
0	13871	4452.477526053563	0
0	13885	4458.951350451472	1
0	13887	4459.951973151344	2
0	13893	4463.665328134902	1
0	13899	4465.452857639066	2
0	13901	4465.524164408446	3
0	13904	4467.086945719336	4
0	13905	4467.211981233246	3
0	13911	4470.178440101395	2
0	13916	4470.867756424788	1
0	13928	4474.073474489237	2
0	13929	4475.638727242532	1
0	13937	4476.690999465177	0
0	13943	4477.074983678015	1
0	13946	4479.15195626814	2
0	13947	4480.694801966614	1
0	13953	4481.402874460087	2
0	13957	4485.996607822591	1
0	13962	4486.075687278005	0
0	13968	4486.52576535078	1
0	13972	4487.779662268561	2
0	13977	4490.07450504768	3
0	13980	4491.1969518038	2
0	13985	4493.090312003271	1
0	13992	4494.840422733609	0
0	14002	4497.748187159834	1
0	14003	4498.017703865816	0
0	14034	4504.084341225714	1
0	14035	4504.674215706933	0
0	14057	4508.900984177272	1
0	14061	4509.436024273772	2
0	14064	4511.216799426259	1
0	14072	4515.132154552073	0
0	14119	4531.335765034102	1
0	14122	4531.935920598204	0
0	14129	4532.619875893058	1
0	14131	4532.920081387894	2
0	14132	4535.105765189922	1
0	14137	4535.994947442515	0
0	14144	4537.866772549398	1
0	14145	4538.532981513785	0
0	14151	4538.98158443624	1
0	14154	4541.897169045705	2
0	14155	4542.686404405142	1
0	14164	4544.422308006817	0
0	14192	4555.833027418169	1
0	14196	4557.419626046459	2
0	14199	4558.113678028835	1
0	14205	4558.525038336644	2
0	14210	4561.904852596228	3
0	14212	4562.053717963041	4
0	14214	4562.927806259486	5
0	14215	4564.886657427165	4
0	14220	4565.329908237317	3
0	14225	4566.172787640499	2
0	14230	4566.473564989175	1
0	14235	4566.721845333391	0
0	14246	4570.817721644873	1
0	14249	4571.49989466353	0
0	14261	4576.059151070314	1
0	14265	4579.255936644128	2
0	14267	4580.176353173077	3
0	14268	4580.562521601105	2
0	14277	4583.018330383515	3
0	14281	4586.071335719757	4
0	14284	4587.066357707984	3
0	14290	4588.598981761117	2
0	14296	4588.679739135584	3
0	14300	4590.891343108061	2
0	14307	4592.248448726556	1
0	14316	4594.348263012911	0
0	14341	4597.466071163335	1
0	14347	4604.043354325638	2
0	14350	4605.962986533257	1
0	14355	4606.033954060497	0
0	14362	4607.19076188014	1
0	14363	4607.658065564164	0
0	14370	4610.173069906006	1
0	14372	4610.278114287768	2
0	14373	4611.681059425422	1
0	14382	4614.137531981966	0
0	14393	4616.322367156995	1
0	14396	4617.572980875771	0
0	14404	4620.40180022438	1
0	14405	4620.5328305407	0
0	14411	4620.632466682073	1
0	14414	4621.783800302863	0
0	14420	4621.801846406387	1
0	14424	4622.058254640674	2
0	14428	4622.601408256219	3
0	14431	4622.958227179378	4
0	14433	4623.198322552485	5
0	14435	4623.300067346139	6
0	14436	4624.96767089999	5
0	14441	4625.138821231541	4
0	14447	4626.219729261459	3
0	14453	4627.157779802022	2
0	14460	4628.602923840865	1
0	14465	4629.23117514091	0
0	14472	4632.119884343562	1
0	14473	4633.621423763564	0
0	14505	4647.806320126184	1
0	14507	4647.810541357634	2
0	14510	4649.411093047828	1
0	14520	4652.463252076337	0
0	14537	4658.052136585614	1
0	14540	4659.705995945705	0
0	14561	4671.159354042085	1
0	14565	4673.15221324574	2
0	14569	4676.427858951973	3
0	14572	4683.875485900126	2
0	14577	4684.04109983646	1
0	14582	4684.222786111271	0
0	14603	4690.777101142947	1
0	14605	4690.953040432083	0
0	14625	4696.040838380165	1
0	14626	4698.468081005418	0
0	14645	4703.398165305647	1
0	14647	4704.378159200604	2
0	14650	4704.723886404289	1
0	14659	4706.970850544473	0
0	14700	4722.659262075976	1
0	14705	4724.507778716887	0
0	14714	4725.752165529839	1
0	14716	4725.870471415153	2
0	14722	4729.711926429143	1
0	14727	4729.924346216802	0
0	14747	4731.356947152919	1
0	14748	4731.527132626672	0
0	14758	4733.781314440044	1
0	14761	4735.157246393605	0
0	14775	4738.43753124221	1
0	14776	4739.620126182025	0
0	14804	4755.184434511702	1
0	14807	4756.33241547161	0
0	14818	4758.288215058075	1
0	14822	4762.4842991005	0
0	14834	4767.845131402825	1
0	14836	4768.598293026435	0
0	14858	4776.668682263953	1
0	14862	4778.481855544338	2
0	14863	4779.168189217766	1
0	14869	4779.82262315726	0
0	14878	4781.118063263919	1
0	14886	4788.347607823583	0
0	14897	4789.242525347318	1
0	14904	4790.644417931907	2
0	14905	4791.775258535925	1
0	14912	4792.600703562424	0
0	14926	4795.438369628472	1
0	14928	4795.871015030776	2
0	14929	4799.282690467469	1
0	14934	4799.724265990137	0
0	14945	4800.049826435312	1
0	14946	4800.3414963526	0
0	14967	4805.56259636802	1
0	14969	4806.677105134256	2
0	14972	4807.63122285993	1
0	14977	4807.691678399518	0
0	14984	4810.050245370603	1
0	14985	4810.349384979238	0
0	15023	4825.731602564517	1
0	15024	4825.845933965835	0
0	15037	4827.048153162491	1
0	15040	4830.077418395885	0
0	15073	4840.16933216833	1
0	15074	4840.468531626862	0
0	15083	4842.947257205307	1
0	15085	4845.592084011673	2
0	15086	4845.967067046255	1
0	15095	4848.61147916364	0
0	15107	4852.508987326351	1
0	15112	4853.035731175267	0
0	15140	4863.054953194724	1
0	15149	4870.581210742102	2
0	15150	4870.802295980458	1
0	15157	4872.505027303251	0
0	15165	4873.793409107698	1
0	15166	4873.810461701373	0
0	15200	4891.415221719062	1
0	15203	4892.157245899799	0
0	15209	4892.654763891668	1
0	15211	4893.243373705537	2
0	15213	4894.188180967245	1
0	15219	4895.623531590194	2
0	15222	4897.590494616934	3
0	15225	4899.316822874785	2
0	15232	4900.661724658711	1
0	15240	4901.644589483138	2
0	15241	4901.875937063223	1
0	15247	4903.154669863674	2
0	15248	4904.454284515125	1
0	15253	4907.017907927493	0
0	15259	4907.117683186044	1
0	15262	4907.676462689068	0
0	15277	4915.988515851401	1
0	15279	4916.359905587067	0
0	15302	4921.459735268151	1
0	15304	4922.508443210211	2
0	15306	4922.70843888489	3
0	15307	4923.95617309544	2
0	15318	4927.143469399328	1
0	15323	4927.531277832777	0
0	15338	4931.628356221959	1
0	15340	4938.716431084374	2
0	15341	4940.611397357638	1
0	15347	4941.382809839142	0
0	15384	4952.392067258281	1
0	15386	4954.027912807872	2
0	15387	4956.431308516707	1
0	15396	4957.655706296223	2
0	15398	4958.285862710971	3
0	15400	4959.413929145183	4
0	15401	4961.227652117884	3
0	15406	4961.239838596347	2
0	15412	4962.229124299173	3
0	15415	4963.141298057579	2
0	15420	4963.868433850125	1
0	15425	4964.364860217793	0
0	15460	4970.683931124915	1
0	15462	4971.177974019561	2
0	15463	4971.269365315045	1
0	15472	4974.414808480979	2
0	15473	4974.663147299079	1
0	15479	4974.676533364483	2
0	15480	4975.665399435944	1
0	15485	4978.243155496517	0
0	15496	4980.505814654935	1
0	15497	4982.158499903406	0
0	15503	4982.411834164393	1
0	15506	4984.620538164756	0
0	15510	4984.857053871543	1
0	15513	4986.097498335762	0
0	15517	4986.32322858089	1
0	15521	4987.084577462534	0
0	15529	4988.561767898314	1
0	15530	4988.880134161624	0
0	15538	4991.821058623958	1
0	15541	4994.546787647591	2
0	15544	4997.457889048486	1
0	15550	4997.929887855263	2
0	15552	5001.004140981595	3
0	15553	5001.094527756256	2
0	15558	5001.38407581504	1
0	15565	5003.374279922263	2
0	15566	5003.823968710709	1
0	15574	5007.287902111511	0
0	15580	5007.821277511394	1
0	15582	5008.17891762704	2
0	15583	5008.828937537009	1
0	15589	5009.269599351784	0
0	15627	5019.852358023656	1
0	15628	5020.928294198748	0
0	15635	5022.390444477771	1
0	15637	5022.676282531277	2
0	15638	5023.598473087293	1
0	15644	5024.823130513289	2
0	15649	5026.113241241215	3
0	15651	5027.144898321858	4
0	15652	5027.213205353942	3
0	15657	5027.598608077412	2
0	15663	5028.077568524833	1
0	15668	5028.125092607377	0
0	15683	5036.265662049145	1
0	15685	5036.391105695823	2
0	15687	5037.920385009499	3
0	15689	5037.96623467781	4
0	15693	5041.845446046838	5
0	15694	5043.968906687284	4
0	15699	5044.619829953421	3
0	15704	5044.65542463297	2
0	15710	5045.580276923044	1
0	15716	5046.803468668195	0
0	15730	5050.892276151387	1
0	15734	5051.525741228145	2
0	15735	5051.611621958871	1
0	15742	5053.518868932961	0
0	15749	5057.18133232024	1
0	15750	5057.423793708752	0
0	15774	5064.744497178352	1
0	15776	5064.948109467987	2
0	15779	5066.283292943487	1
0	15786	5068.175574206249	0
0	15798	5072.251096751757	1
0	15799	5072.53647306246	0
0	15808	5073.139019120933	1
0	15814	5075.891636728894	2
0	15816	5078.402347567732	1
0	15821	5078.691763343878	0
0	15828	5079.410931681671	1
0	15830	5080.071518900107	2
0	15834	5081.674477342406	3
0	15835	5082.649186678444	2
0	15842	5085.226619720037	1
0	15852	5086.971491110755	0
0	15870	5094.597169945783	1
0	15871	5095.894046428928	0
0	15887	5099.997714798434	1
0	15891	5103.64957618773	2
0	15892	5103.673077384121	1
0	15898	5105.785854604055	0
0	15905	5107.794001164555	1
0	15907	5107.982585335228	2
0	15911	5111.682180601313	3
0	15916	5115.228797056119	2
0	15930	5117.508550563548	3
0	15934	5123.067173259559	2
0	15940	5124.066320755549	1
0	15948	5125.368877654825	0
0	15956	5129.034750508799	1
0	15957	5129.787153813135	0
0	15965	5130.835541041588	1
0	15966	5131.234330331194	0
0	15975	5135.707854051652	1
0	15976	5135.775997847491	0
0	15995	5139.379093469479	1
0	15997	5140.406628096579	2
0	15998	5141.055269062454	1
0	16006	5144.41893539656	0
0	16015	5146.266243250877	1
0	16018	5148.511321339843	0
0	16035	5149.504280773596	1
0	16036	5149.70784160463	0
0	16049	5151.411356872074	1
0	16053	5155.646261838489	0
0	16061	5159.052087262844	1
0	16063	5159.918707256512	2
0	16064	5160.851926500904	1
0	16070	5163.91679558075	0
0	16079	5165.264358447266	1
0	16080	5165.648155017054	0
0	16086	5167.042295712859	1
0	16088	5167.786219517444	2
0	16090	5168.474560543482	3
0	16091	5172.835660160453	2
0	16096	5173.132171838386	1
0	16101	5174.997259647176	0
0	16135	5191.201579497685	1
0	16137	5192.403856726062	2
0	16138	5192.657294571978	1
0	16143	5194.018889842931	0
0	16157	5197.457578303366	1
0	16159	5198.512811816159	2
0	16160	5199.214068614804	1
0	16165	5199.501577432068	0
0	16189	5208.71856217216	1
0	16191	5209.250478862765	2
0	16195	5211.516786932231	3
0	16196	5214.409117373618	2
0	16203	5215.783549714465	3
0	16206	5218.087513935637	2
0	16211	5218.216886945944	1
0	16217	5218.947170528351	2
0	16218	5219.380759402185	1
0	16225	5220.603969838634	0
0	16254	5226.852927726991	1
0	16255	5227.126710809391	0
0	16269	5229.329212025184	1
0	16270	5229.538826540214	0
0	16293	5238.513063774237	1
0	16296	5240.471468334231	0
0	16328	5253.16575255947	1
0	16332	5256.710938347103	2
0	16334	5257.534981362936	3
0	16335	5258.193857628059	2
0	16342	5260.467389859181	3
0	16343	5260.638736858645	2
0	16348	5260.869387508428	1
0	16355	5264.782339651955	0
0	16362	5265.225344649197	1
0	16366	5270.468603731153	0
0	16373	5270.883145027079	1
0	16376	5272.379295660646	0
0	16389	5275.690528449294	1
0	16391	5275.954810701981	2
0	16393	5276.240732413285	3
0	16394	5276.377948927864	2
0	16399	5276.399738150209	1
0	16405	5278.023287125545	0
0	16416	5278.959146109299	1
0	16418	5281.102825535463	0
0	16433	5287.364871126429	1
0	16436	5287.637813988234	0
0	16457	5289.627345032001	1
0	16462	5294.884151582949	2
0	16464	5295.649723077426	3
0	16465	5295.724752506949	2
0	16472	5297.353166626518	3
0	16474	5298.536596437836	4
0	16475	5299.942871487083	3
0	16480	5301.199339800782	2
0	16487	5302.148513999753	3
0	16488	5302.5911841517	2
0	16494	5304.078639489741	1
0	16502	5309.227795798153	0
0	16512	5311.491319773027	1
0	16513	5314.435661484993	0
0	16537	5325.586014714665	1
0	16542	5328.6299617466	0
0	16556	5333.428982224017	1
0	16561	5336.467820324761	0
0	16568	5337.003958126067	1
0	16571	5340.279066478827	0
0	16581	5343.41463931064	1
0	16584	5345.951437956736	0
0	16593	5346.695513186142	1
0	16597	5347.276098586436	2
0	16599	5348.21794766573	3
0	16601	5348.358052191817	2
0	16608	5352.35182328923	1
0	16613	5353.008498785937	0
0	16650	5369.322858576682	1
0	16651	5370.295488817427	0
0	16658	5371.415913281043	1
0	16659	5371.488300247127	0
0	16668	5372.971868725302	1
0	16670	5373.85318416765	2
0	16671	5374.298589286028	1
0	16676	5375.128547942271	0
0	16682	5375.614546300787	1
0	16687	5376.526029550169	2
0	16692	5378.459669028676	3
0	16695	5379.567959890377	4
0	16696	5379.630969450907	3
0	16701	5380.300069698185	2
0	16706	5381.550075674286	1
0	16713	5382.579807190526	0
0	16724	5383.746844383191	1
0	16725	5385.447706995101	0
0	16749	5393.669155909569	1
0	16756	5397.232418204367	0
0	16771	5400.57841464471	1
0	16778	5404.90398364714	2
0	16779	5404.911327170198	1
0	16786	5405.549862125605	2
0	16789	5408.238166855075	1
0	16794	5408.838337654809	0
0	16804	5411.237483674068	1
0	16810	5414.11655713283	2
0	16813	5414.992323986232	1
0	16818	5415.440085937269	0
0	16824	5415.654580358857	1
0	16826	5415.757959768971	2
0	16829	5418.424681753541	1
0	16834	5418.93979327027	0
0	16848	5422.327494587692	1
0	16849	5423.987464843017	0
0	16865	5430.175917137677	1
0	16866	5430.873318892622	0
0	16879	5436.343585941597	1
0	16880	5436.444941305661	0
0	16886	5436.896209158929	1
0	16888	5436.998868992731	2
0	16893	5441.5503077116	1
0	16899	5442.919568683002	0
0	16914	5445.175364754547	1
0	16918	5450.157299719637	2
0	16919	5451.845850274053	1
0	16932	5454.053536443478	0
0	16949	5461.10061110961	1
0	16951	5462.666769074493	2
0	16953	5468.234177879485	1
0	16958	5468.393854012299	0
0	16976	5477.870972393273	1
0	16978	5480.407650775427	2
0	16982	5483.608726334515	3
0	16983	5484.287769805623	2
0	16992	5486.367558304088	1
0	16997	5487.088137011006	0
0	17032	5502.37689774766	1
0	17034	5502.77625284289	2
0	17037	5503.55145060137	1
0	17044	5505.072014967439	2
0	17045	5505.355941437045	1
0	17052	5508.978029446298	2
0	17055	5509.747695654417	3
0	17056	5510.117411478782	2
0	17062	5510.405986700448	3
0	17069	5517.315955330543	2
0	17077	5520.319288617702	1
0	17083	5521.723155545014	2
0	17084	5522.733131188087	1
0	17093	5527.740802763374	2
0	17095	5528.969141295967	3
0	17096	5529.320224818486	2
0	17102	5531.92410281597	3
0	17103	5532.621947922642	2
0	17111	5535.401566277609	1
0	17116	5536.309438159693	0
0	17122	5537.468910665398	1
0	17123	5537.963282846227	0
0	17135	5539.195636306352	1
0	17136	5540.305262194923	0
0	17154	5542.199986750839	1
0	17160	5544.067396155653	0
0	17178	5546.324936638064	1
0	17179	5546.552043651517	0
0	17193	5549.571627919457	1
0	17200	5553.265089545999	2
0	17202	5555.845388430249	3
0	17204	5560.298252106542	4
0	17207	5561.872512673555	3
0	17212	5562.143302026562	2
0	17217	5562.650676009888	1
0	17230	5565.486557625445	0
0	17239	5565.53752427635	1
0	17243	5567.648646701349	2
0	17245	5568.257866959912	3
0	17246	5569.81839171986	2
0	17253	5571.531125485956	3
0	17262	5576.340416844382	4
0	17264	5576.781693299882	5
0	17265	5577.605603950453	4
0	17273	5579.168535621285	3
0	17280	5580.458546718098	2
0	17286	5582.33867137261	3
0	17289	5583.357463273429	4
0	17291	5584.449268859925	5
0	17293	5586.815819611398	4
0	17298	5586.911708459976	3
0	17303	5587.206888299189	2
0	17313	5592.551331869215	1
0	17318	5592.6129007272	0
0	17333	5595.487271672472	1
0	17334	5595.567968347161	0
0	17346	5598.984588183469	1
0	17347	5601.260799649375	0
0	17379	5608.345081072785	1
0	17381	5611.046127222741	2
0	17384	5614.057004640756	1
0	17390	5616.013413709512	0
0	17409	5630.779506310937	1
0	17410	5634.847965589447	0
0	17422	5641.005967098269	1
0	17424	5642.108396258499	0
0	17435	5643.589245313261	1
0	17438	5644.509592216787	0
0	17449	5645.609386695567	1
0	17455	5646.991415033959	0
0	17490	5657.632031711268	1
0	17494	5660.163576379892	2
0	17495	5660.292352644521	1
0	17502	5661.671045845455	2
0	17504	5661.687670778454	3
0	17506	5661.71826143636	4
0	17507	5662.427760094314	3
0	17513	5662.637956159312	2
0	17519	5664.417735525003	1
0	17526	5665.586104656794	2
0	17527	5668.570315395342	1
0	17532	5669.073367638153	0
0	17575	5680.095254669595	1
0	17579	5680.767070855383	2
0	17583	5687.556882891054	3
0	17588	5690.874451047762	4
0	17589	5692.102970320469	3
0	17596	5693.004213301284	2
0	17603	5695.015141993509	3
0	17605	5696.284685351903	4
0	17607	5697.27498851912	3
0	17614	5698.135362863883	4
0	17615	5698.510803549324	3
0	17625	5700.88008558777	2
0	17631	5701.985902582762	1
0	17637	5702.766019209596	2
0	17639	5703.465143081514	3
0	17643	5705.896805092496	4
0	17648	5706.982240847259	5
0	17653	5709.057434482532	6
0	17655	5709.093061306509	7
0	17656	5712.432119075262	6
0	17662	5715.50217880219	5
0	17673	5725.192137453046	4
0	17681	5730.305277226541	5
0	17682	5730.575504502926	4
0	17688	5730.931822249153	3
0	17695	5732.638608468186	2
0	17701	5733.421743284567	3
0	17705	5734.349160633096	4
0	17706	5735.629427726136	3
0	17711	5736.001469792778	2
0	17717	5736.655424465305	1
0	17722	5737.326809460191	0
0	17733	5739.17087251508	1
0	17737	5741.106473249481	2
0	17739	5742.069470028728	3
0	17741	5743.306196674261	4
0	17743	5743.394561196196	5
0	17744	5744.186345758001	4
0	17751	5744.905113557401	5
0	17754	5746.291793190463	4
0	17762	5747.194939972886	3
0	17767	5749.694101908818	2
0	17773	5752.270976325588	3
0	17777	5758.776177801109	4
0	17778	5759.810507836598	3
0	17785	5764.310844503127	2
0	17791	5766.774057894895	1
0	17796	5767.414601540765	0
0	17820	5769.033431866675	1
0	17821	5769.175222411588	0
0	17837	5770.34688529201	1
0	17838	5770.561206616493	0
0	17852	5773.770770090762	1
0	17854	5776.790176455741	0
0	17869	5779.856525767518	1
0	17872	5781.824214481778	0
0	17892	5786.281128768536	1
0	17895	5787.899771319813	0
0	17901	5788.047322294934	1
0	17906	5789.591934506159	2
0	17907	5789.713204334927	1
0	17914	5794.0914870031	2
0	17915	5794.219954860498	1
0	17921	5795.462054970935	2
0	17924	5796.636427567028	3
0	17925	5798.319541519064	2
0	17937	5802.049110452252	3
0	17938	5802.515421517642	2
0	17945	5804.900562483808	3
0	17947	5806.555973708956	2
0	17953	5807.666995640901	3
0	17957	5812.247518508682	2
0	17962	5812.454205734024	1
0	17973	5817.972565575938	0
0	18005	5825.607778979692	1
0	18011	5829.190539640911	2
0	18012	5831.983965718487	1
0	18019	5832.378734179277	0
0	18025	5832.597953305794	1
0	18032	5837.14333632578	0
[...]
5	86164	28217.673573197742	5.034427427784
5	86169	28218.456230937452	4.26474383227
5	86201	28234.276093250615	8.680968106043
5	86208	28234.602510738137	2.721597784343
5	86217	28236.767176152279	2.328959021073
5	86237	28243.07364691832	4.375585880124
5	86242	28243.673580660142	3.908197607011
5	86275	28262.833161928529	8.199589765752
5	86285	28264.151833732993	1.792239018827
5	86293	28267.605222603358	3.834633596646
5	86302	28268.579580569147	3.870910831223
5	86307	28269.383420975165	1.56641082603
5	86335	28285.033624429675	10.979062221043
5	86341	28285.245794564084	7.530369580604
5	86346	28286.135085652809	5.625749245194
5	86361	28290.583854750495	7.576538022357
5	86395	28301.271327238314	0.84568506041
5	86421	28314.187456705237	9.315746508177
5	86455	28325.745131490252	7.39731101907
5	86463	28326.755199916491	4.930465786467
5	86468	28326.800482053674	1.379357875466
5	86505	28342.876315338006	5.320386319042
5	86517	28349.911663790439	7.426744350427
5	86522	28349.936750376476	7.411821179352
5	86529	28354.380140951747	11.428617737339
5	86534	28355.159333939858	8.206289255801
5	86552	28358.68281019111	1.315704957754
5	86568	28363.528506717887	4.307994716526
5	86573	28363.725380402514	3.453010618967
5	86608	28377.248553943733	3.706123239851
5	86644	28393.275300758056	1.145885228471
5	86675	28405.796119240799	1.261837715801
5	86690	28408.667483052307	2.626522448454
5	86710	28414.895943235295	6.255931565389
5	86716	28415.085857544752	4.560823806828
5	86723	28415.361034404492	3.757702121413
5	86737	28418.348693342775	5.433598841828
5	86748	28421.296042243255	6.455922685094
5	86755	28422.054389412652	7.165016622711
5	86770	28428.216509590105	9.361936639047
5	86775	28428.282532892668	7.8003067259
5	86787	28433.573034311433	12.3537264829
5	86792	28434.337432004973	12.046204405303
5	86800	28438.176625322306	13.681733918001
5	86810	28441.038400833548	16.498275780644
5	86815	28441.128590406562	10.923025387079
5	86822	28442.695613574334	3.734734693286
5	86835	28446.262292833	5.764123698053
5	86844	28447.951431623628	4.548954814135
5	86850	28451.684211918619	7.897028009366
5	86857	28452.60137436156	8.328340644896
5	86862	28454.638707212681	9.780842267828
5	86874	28458.751216544124	12.145455031129
5	86890	28462.604161090398	10.586891843169
5	86895	28463.068802730063	7.54640124794
5	86902	28466.0702804043	9.78740803142
5	86907	28466.150461505345	7.297931278255
5	86912	28466.215451424107	4.567255562789
5	86919	28468.040029114703	5.822970054994
5	86926	28475.420666109324	9.639111966178
5	86933	28478.402110764928	11.655728019003
5	86941	28482.64591110886	14.22905208476
5	86946	28483.243537734534	6.544793685556
5	86973	28491.758764939492	3.188767854774
5	87009	28500.119826032926	3.412548137127
5	87014	28500.554100444071	2.762503498582
5	87019	28500.683426526914	0.950712452927
5	87035	28505.218992303899	2.494952080972
5	87065	28518.27202286698	8.370706156996
5	87089	28524.670037010131	5.076121245181
5	87095	28525.124383990461	1.874302735933
5	87133	28542.035666547001	2.448591397942
5	87138	28543.720900936115	3.88809495434
5	87143	28543.769049513267	2.476882357814
5	87149	28545.033322346392	3.512835270949
5	87185	28549.60119402315	0.245201398044
5	87202	28556.983338711342	5.91005266461
5	87237	28569.974144893949	10.631024637615
5	87245	28571.396790924432	11.769389097149
5	87250	28571.454939285275	10.944295556046
5	87255	28572.995603288303	6.964584275446
5	87260	28573.711500631959	7.553149859864
5	87275	28577.346739669443	8.443153678934
5	87283	28578.772864099808	9.797888859488
5	87291	28580.506314999009	10.877436498388
5	87297	28582.265793765822	10.976499934284
5	87304	28582.641829242487	8.694203357809
5	87309	28583.224943996621	9.042971730351
5	87320	28585.007993781389	7.464707032757
5	87330	28587.721817296315	8.648473979356
5	87338	28588.469305503968	3.864662425919
5	87343	28590.28915823993	3.452690776935
5	87357	28595.026887914192	7.4965814643
5	87363	28597.24713886992	9.124441985577
5	87368	28598.033465801103	7.247393516473
5	87377	28600.8105506981	6.533494597847
5	87382	28602.444972318631	4.04320479028
5	87413	28620.433144472289	8.133006760128
5	87429	28623.844064813209	3.395615316643
5	87435	28625.54557407642	3.442418068438
5	87447	28628.623073857548	5.440814101528
5	87453	28636.722223337289	9.236471082815
5	87465	28640.168843198914	11.563629610139
5	87470	28640.757359990469	0.926100083842
5	87497	28655.189679734612	13.438873603734
5	87507	28657.014164530111	13.573248970612
5	87517	28658.996888684289	13.358473634639
5	87522	28659.306391683498	5.546145621114
5	87529	28660.251997411937	4.631576414456
5	87536	28660.781789924414	2.911660673502
5	87544	28661.511832554828	3.322050730128
5	87553	28663.421354851231	3.370475642941
5	87558	28664.502820161136	4.033840663162
5	87574	28669.237050545586	7.800955847984
5	87580	28672.197746530822	9.830205571977
5	87585	28673.603995847368	8.587580782314
5	87609	28684.911194699444	19.698295626705
5	87620	28686.379175596832	11.80744723076
5	87625	28688.435538572074	13.708674336093
5	87630	28689.421096797059	13.687661737699
5	87643	28693.133211306737	16.802338859409
5	87655	28697.433517668771	17.827573666365
5	87667	28700.244010887735	13.928324581141
5	87676	28703.87913240236	13.795283299346
5	87682	28705.874375768922	13.145567168218
5	87689	28706.187676406209	12.681451253627
5	87696	28710.316763191367	12.24360247465
5	87704	28711.793926871186	12.742076075862
5	87714	28715.793177030024	16.133636801351
5	87720	28716.704314761269	15.651723678644
5	87725	28717.044342767022	10.857011594443
5	87730	28717.184934780778	6.382597510923
5	87740	28724.395584718134	11.818445850455
5	87745	28725.726146813288	10.655534427768
5	87770	28729.474480102936	0.813710407121
5	87799	28739.343135592663	4.771988620663
5	87811	28742.040381867687	4.944697031104
5	87824	28745.65814509223	5.138140144885
5	87832	28746.069960356133	5.070185728438
5	87843	28748.95025862323	4.045341741418
5	87848	28749.333222472281	3.273646036299
5	87859	28754.650824189312	6.554839780645
5	87877	28759.553914341161	2.413187293662
5	87895	28764.540377997247	0.384099752376
5	87911	28767.422538979398	1.837759187315
5	87916	28767.929289953286	1.836100353546
5	87936	28775.721071960616	5.025062501697
5	87941	28776.83852993942	4.510383720551
5	87950	28777.131719624047	3.589877439145
5	87959	28779.402702253821	2.523682113954
5	87993	28786.929325483589	5.391712809805
5	87998	28786.955891215278	3.621444332952
5	88003	28787.558525807652	1.265573302805
5	88008	28787.699935911296	0.885483256815
5	88025	28791.922976901031	1.924529307923
5	88051	28806.621527747479	4.304130927194
5	88060	28808.710322665737	3.463082091569
5	88092	28820.285757240029	6.696323118236
5	88099	28820.585137084266	3.413974552749
5	88108	28826.044672178711	6.069680133501
5	88118	28826.897041019212	3.494438883393
5	88123	28827.680311290304	1.408154165163
5	88142	28829.546478584146	1.327226540117
5	88185	28841.258125834697	9.900842366548
5	88192	28844.424032937712	12.431931051926
5	88199	28847.397720868792	15.326898437038
5	88205	28847.520958533474	13.952216501731
5	88210	28848.451585835467	12.24049333665
5	88217	28853.374285800069	13.232265335622
5	88229	28871.465345318413	30.266214891433
5	88236	28871.916751527107	18.364877881627
5	88242	28872.76445025918	14.660164773942
5	88254	28883.190229610439	19.103144677494
5	88260	28885.828537220137	13.943457088417
5	88267	28886.028425793875	7.382523314262
5	88276	28888.538286412451	6.436782987491
5	88283	28889.158318255278	2.358006138306
5	88320	28895.30695262507	1.224571245838
5	88332	28899.783405836065	4.909286507745
5	88338	28901.253605376603	3.553919665111
5	88358	28912.285383997782	12.595059919641
5	88363	28912.596261482115	6.763859552009
5	88368	28912.70093945645	6.31493788064
5	88381	28920.839646135888	13.882116172463
5	88386	28920.896485548127	11.738787749328
5	88398	28923.27671097108	13.622844030238
5	88405	28927.47983375561	4.548028375581
5	88427	28935.19037287991	7.554735504079
5	88439	28942.512967933228	13.457054275925
5	88444	28942.791176477228	5.973785604795
5	88463	28947.899967360956	3.181421461608
5	88487	28958.226095293807	2.969250887797
5	88500	28962.178172756462	3.909467156009
5	88516	28967.666238008695	3.887324596387
5	88550	28978.876430618538	5.569881854267
5	88557	28981.318846207207	3.310269632105
5	88562	28981.587348397392	3.416835278138
5	88603	28997.048104531614	6.539286962068
5	88615	29002.530010383078	7.61389353346
5	88628	29007.235481556765	8.841059092009
5	88636	29009.316658220752	10.813227883775
5	88648	29012.411118969604	10.013641463173
5	88655	29013.231033716622	9.360874066542
5	88664	29013.620116211256	7.545305917422
5	88671	29014.189193729368	5.677332187837
5	88681	29022.220588502506	9.962100010955
5	88691	29026.001610945702	13.653712629419
5	88706	29029.309090417024	15.930433414881
5	88711	29029.364290689617	15.390958589167
5	88718	29030.45624333122	9.450174932027
5	88748	29037.808601167065	4.773070929612
5	88772	29047.770965637924	6.97772956577
5	88796	29054.90172450922	6.753158119316
5	88803	29056.559908847291	7.072245871821
5	88808	29056.811531112368	6.492901646361
5	88813	29057.410065914777	6.435282789354
5	88819	29058.263230761249	6.771618580405
5	88841	29066.034048378388	5.422385838489
5	88861	29076.38605092648	8.193528118359
5	88876	29083.852142499939	7.262869527714
5	88901	29094.191762293808	2.597447796713
5	88922	29099.892629958522	4.003231112644
5	88930	29100.744710034494	3.214797575862
5	88939	29101.92344136419	4.051524864573
5	88944	29102.586669557505	1.698062887097
5	88971	29110.833475356978	2.031517507807
5	89002	29121.436487531498	3.902061181428
5	89010	29122.565323149684	3.651741895464
5	89015	29123.253833191224	3.659292986685
5	89024	29125.821608618859	4.737465914958
5	89029	29126.252865247607	4.269038211236
5	89034	29126.361664615009	3.043246973853
5	89070	29148.19316272169	12.964912639816
5	89085	29152.083627411895	16.504692004294
5	89091	29153.076619847581	16.418171458988
5	89098	29154.978293812518	17.238957664038
5	89105	29155.224649515762	16.727933889639
5	89115	29158.512470408982	19.121009275936
5	89121	29161.148478361659	20.371027538123
5	89128	29165.506084067858	23.998212985702
5	89135	29166.790274198198	15.691596474978
5	89148	29175.410494868127	24.249717667883
5	89154	29177.346764624057	24.151301190729
5	89165	29179.881847026529	24.292093858029
5	89170	29180.208777178496	0.849800658009
5	89177	29180.625302792816	0.962802853521
5	89182	29180.661273617197	0.388558480053
5	89210	29189.781346390177	7.130757683267
5	89215	29189.821905075739	3.55533815635
5	89220	29190.236342171296	3.624346064065
5	89239	29202.016852339614	11.385101055617
5	89245	29206.727741609362	12.132496622871
5	89255	29211.578741008241	16.430641208257
5	89263	29214.350071359788	7.587264530307
5	89271	29217.647163823661	10.283446681734
5	89281	29219.938045378842	8.250530086028
5	89287	29221.824901586013	2.564645597836
5	89301	29226.966737082722	7.652368613775
5	89318	29231.064205070757	2.20031767307
5	89335	29236.739453723606	2.468720940143
5	89355	29242.802604236372	5.114884516415
5	89363	29247.994617492745	8.923704880863
5	89381	29256.849006713665	16.424641642788
5	89387	29257.731143206219	13.230825353876
5	89393	29258.504103684002	9.525998752469
5	89398	29258.752286758695	7.411892292391
5	89403	29260.018424330219	7.060600500608
5	89412	29262.238534865584	8.845650049167
5	89421	29264.634927011245	7.913609689222
5	89429	29267.910199694252	4.386361492013
5	89445	29271.333030474029	3.213432686883
5	89453	29272.885154845455	3.332460275463
5	89460	29272.932072543775	1.135613810362
5	89465	29272.93404407512	0.019834167512
5	89528	29290.536681568343	9.932703620085
5	89535	29291.433834642617	9.036987461521
5	89544	29296.09362732804	12.905296830584
5	89552	29299.174693448308	15.929733367542
5	89557	29299.399038231479	15.408386339197
5	89562	29299.990544600325	14.937431876098
5	89568	29300.471247837049	14.126921275577
5	89576	29303.760055513094	16.461384959423
5	89581	29303.819973705745	16.042653763376
5	89586	29304.253483984321	15.943421879522
5	89592	29305.190130789747	13.881111428637
5	89633	29331.586432064977	19.927952145025
5	89639	29333.522651686687	11.351891598425
5	89653	29335.55261899269	12.636636829026
5	89658	29335.737775879971	8.444032130557
5	89667	29338.050353764736	9.371748616919
5	89672	29338.446393335402	9.69276366346
5	89678	29338.659710849947	8.324319078894
5	89683	29339.075740276532	8.316409712679
5	89690	29340.629132525329	7.009140928218
5	89695	29341.096307959755	7.31127487559
5	89705	29342.578939451683	8.066146249253
5	89719	29348.431822516015	11.467918347539
5	89730	29349.195458735327	7.446258312812
5	89736	29350.064931627829	5.218360622233
5	89741	29350.126081362789	1.587574056298
5	89746	29350.568618577869	1.447672717762
5	89784	29369.258640216991	17.816959887348
5	89789	29370.453455921227	9.655117796458
5	89800	29372.900838953242	8.316199735144
5	89810	29376.242325738235	11.009136942535
5	89818	29378.29070304976	9.972958692101
5	89824	29381.400747295757	7.615279184757
5	89831	29382.799489829683	5.240144774799
5	89838	29384.002831119052	1.325833746597
5	89871	29393.103529706166	6.976828616571
5	89878	29394.028899351527	6.021311004965
5	89885	29395.895720717368	5.622699880679
5	89901	29401.247718786225	6.022931650602
5	89907	29401.282072607411	5.357667026275
5	89914	29402.140080117861	5.432161644
5	89925	29405.533733944325	7.717918085807
5	89930	29408.584670182784	6.961422245455
5	89970	29417.992877071806	3.375108740179
5	89975	29418.510670846065	3.354830709577
5	90003	29427.505017689775	7.704243100532
5	90009	29428.367664927727	8.04380476158
5	90028	29445.814054676562	20.837669045557
5	90034	29446.589381244111	19.991695324064
5	90042	29447.848751001895	20.584544984746
5	90047	29447.863395545936	9.121286393716
5	90054	29448.985358529092	9.655520608679
5	90062	29449.500649955425	6.817971801256
5	90072	29451.935950281808	6.122462644755
5	90077	29452.970033466216	3.929156405504
5	90082	29453.200697983595	1.438170847948
5	90098	29457.417916980421	3.404803480701
5	90163	29484.049132611295	7.471988992394
5	90169	29485.552700086716	7.107468485587
5	90181	29488.336911331458	1.927940039769
5	90205	29500.486136197244	9.445823238642
5	90215	29503.912232442633	11.877901601724
5	90225	29504.635450925973	7.548953020094
5	90231	29504.970404136213	4.581709803635
5	90238	29505.5521561966	3.104522715777
5	90245	29505.890441058994	2.792098569209
5	90251	29508.086751328361	3.825032903297
5	90276	29514.438668467206	4.356234900642
5	90281	29519.522296030012	8.094560226899
5	90286	29522.584375615238	11.113363920993
5	90292	29526.158509032567	12.108347583298
5	90318	29537.668384697054	2.771845528668
5	90335	29544.467346956213	5.436255451632
5	90355	29548.693275195659	3.57747300132
5	90361	29551.005797339424	3.385674386006
5	90385	29562.163299094266	2.65910904868
5	90391	29564.122188643917	2.747129415203
5	90412	29570.674084993621	3.156934609782
5	90445	29588.759546543972	11.651417522219
5	90454	29591.495354872328	3.724104670246
5	90485	29597.05393668153	5.071766224914
5	90501	29604.572661206584	11.672806338156
5	90509	29607.6943121323	12.350973605876
5	90517	29610.003558240882	12.086835403588
5	90525	29613.060377542902	11.26244607086
5	90530	29613.778322034279	0.855750824035
5	90557	29619.84667996777	5.573421401986
5	90566	29623.669802897539	7.555519766457
5	90572	29624.911666125476	6.421573807059
5	90577	29625.201117335287	6.327682828962
5	90626	29644.443616092912	5.686203465491
5	90633	29646.929780359675	7.609009815786
5	90640	29649.314835662883	9.607579281201
5	90646	29649.665867310147	9.527448997269
5	90653	29650.005121391067	3.399757060908
5	90667	29653.956514884029	6.90400215394
5	90673	29655.095061330504	4.977467716796
5	90678	29655.844728940799	2.700807335621
5	90704	29661.837135373423	4.916179862558
5	90723	29671.371594357349	13.546187460197
5	90737	29673.695517427867	15.75813591779
5	90742	29673.996228591304	15.250957472217
5	90750	29675.037080031703	9.559655229179
5	90759	29680.548116588208	14.612080272256
5	90765	29681.594638956133	10.397681004945
5	90773	29690.245528323505	18.899937408021
5	90783	29694.572155275296	22.737847452243
5	90797	29696.71059464827	24.525162445443
5	90802	29696.741645779508	22.527332493289
5	90812	29699.510714474153	11.014052043924
5	90818	29701.494693512649	8.421217670887
5	90824	29702.416977920342	6.306185419096
5	90829	29704.73530011158	8.047453263722
5	90843	29712.153440008155	15.068243693708
5	90856	29714.618787145089	9.10613452201
5	90865	29719.017866748232	4.644177999928
5	90870	29723.649648669088	5.860339037163
5	90891	29729.927943298344	5.035364257155
5	90899	29732.151330126677	5.237365066534
5	90908	29735.425830186639	5.000303650304
5	90939	29741.472148986016	2.1141480596
5	90959	29749.293622724828	6.363099601541
5	90964	29749.461048863017	3.797160570314
5	90969	29749.493908727267	0.625842045102
5	90998	29756.258086495998	2.172911825273
5	91007	29756.844971424043	1.113757751908
5	91019	29759.597310463307	3.280606136048
5	91026	29760.279632141925	3.102474560812
5	91038	29763.389343509136	3.424439847988
5	91058	29774.004878720042	10.648567332115
5	91070	29777.679657000736	12.849365514195
5	91075	29777.784954982915	12.150198177745
5	91080	29778.667206900747	12.253900858196
5	91098	29783.154125405412	14.9577448288
5	91110	29788.953510277366	13.343881427669
5	91117	29791.53507193176	11.452930608786
5	91123	29791.984932670316	10.92651188412
5	91128	29792.966752324948	10.750864134069
5	91148	29797.857705035073	15.110080839102
5	91153	29797.983532445106	11.824923175979
5	91161	29798.489324324774	10.99419926472
5	91167	29798.923013308665	3.466545403563
5	91172	29799.139279488704	2.742662668185
5	91183	29801.197836091857	4.575730489478
5	91189	29803.789141990801	5.385549775879
5	91195	29804.638397350734	5.488104254938
5	91200	29806.427700738286	6.612915867749
5	91215	29808.230636166548	1.041519601899
5	91221	29810.249390218607	2.17731094207
5	91241	29816.919177457215	5.391931773831
5	91246	29817.977554727824	5.246318193783
5	91254	29820.148335981853	6.616919663634
5	91268	29824.303908840374	0.51331429473
5	91287	29828.818189305051	4.39896212961
5	91302	29835.336433937489	2.190365969133
5	91327	29843.314089665959	7.158024069014
5	91334	29843.361141363357	6.314392878296
5	91342	29844.612305825504	7.426795968868
5	91352	29847.898701280521	8.403884605285
5	91357	29849.346180112581	9.683123287534
5	91362	29851.881049319632	9.479159932226
5	91369	29854.836204275636	11.498773420313
5	91376	29856.811494097611	10.972580373075
5	91394	29862.524351760551	5.20296367762
5	91399	29864.464146889492	3.754488076607
5	91453	29886.864779385057	10.186979701605
5	91460	29887.466854389684	10.527387033229
5	91472	29891.539448386754	13.94541372834
5	91483	29899.450785385406	21.175620558844
5	91491	29900.041240139807	12.383235330037
5	91498	29901.14737837704	4.650875170211
5	91508	29906.69777028725	7.461676520005
5	91513	29907.06614354187	7.313453626841
5	91518	29907.678222935145	7.033612061251
5	91527	29908.496289355497	6.252701338988
5	91542	29913.432523204623	4.372803222855
5	91590	29923.648225345796	1.811522500691
5	91608	29930.217581691652	5.45388926056
5	91615	29931.207552128649	3.643223235349
5	91627	29933.363631057879	2.202392985349
5	91639	29936.111985103016	3.432954023585
5	91647	29938.630496850965	5.50998937607
5	91658	29943.68847647836	9.636939028016
5	91666	29947.791419122159	11.938072328438
5	91676	29950.882227144767	13.006127181309
5	91686	29954.752102859062	14.955965037809
5	91692	29956.693417408359	14.155154159453
5	91697	29958.256149887511	10.792810207253
5	91719	29965.460787503894	3.205945028139
5	91727	29966.318266774865	2.983203446741
5	91732	29966.963873151632	3.351603987788
5	91750	29972.622294670698	1.379073677081
5	91776	29981.462373444747	8.838122331231
5	91787	29985.066825044621	11.654121237114
5	91794	29986.04934385207	9.453484701935
5	91805	29989.931866496415	12.053439243617
5	91816	29993.049090830352	14.787451994196
5	91822	29995.091542176192	8.910371905044
5	91827	29995.306907297331	4.628881909382
5	91837	29996.327103538287	4.790378953921
5	91845	29997.602635603431	1.517389378379

