version 2
run Third-n3-7-20191016-17:04:47-924
attr configname Third-n3
attr datetime 20191016-17:04:47
attr experiment Third-n3
attr inifile omnetpp.ini
attr iterationvars ""
attr iterationvarsf ""
attr measurement ""
attr network org.omnetpp.queueing.Pizza
attr processid 924
attr repetition 7
attr replication ""
attr resultdir results
attr runnumber 7
attr seedset 7
param **.PS.maxInventoriedPS 3
param **.U1.interArrivalTime exponential(4s)
param **.U2.interArrivalTime exponential(6s)
param **.PS.serviceTimeForInventoryU1 exponential(1.4s)
param **.PS.serviceTimeForInventoryU2 exponential(1.4s)
param **.PS.serviceTimeDirectU1 exponential(1.8s)
param **.PS.serviceTimeDirectU2 exponential(1.8s)
param **.PS.probabilityProducing 0.8
param **.CS.serviceTimeU1 exponential(2.3s)
param **.CS.serviceTimeU2 exponential(2.3s)

vector 0 Pizza.EntryQueueU1 queueLength:vector ETV
attr interpolationmode sample-hold
attr title "queue length, vector"
vector 1 Pizza.CS queueLength:vector ETV
attr interpolationmode sample-hold
attr title "queue length, vector"
vector 2 Pizza.EntryQueueU2 queueLength:vector ETV
attr interpolationmode sample-hold
attr title "queue length, vector"
vector 3 Pizza.sink lifeTime:vector ETV
attr interpolationmode none
attr title "lifetime of arrived jobs, vector"
attr unit s
vector 4 Pizza.sink lifeTimeU1:vector ETV
attr interpolationmode none
attr title "lifetime of arrived jobs, vector"
attr unit s
vector 5 Pizza.sink lifeTimeU2:vector ETV
attr interpolationmode none
attr title "lifetime of arrived jobs, vector"
attr unit s
0	0	0	0
0	14	6.37254240671	1
0	20	9.46559952548	2
0	22	9.828553224905	3
0	24	10.127667818756	4
0	29	12.302249280922	5
0	30	12.428367818012	4
0	39	13.53134411258	3
0	44	14.083382751486	2
0	55	20.426423279617	3
0	56	21.003944443883	2
0	62	22.832806862407	1
0	67	23.161503908178	0
0	88	28.049575322947	1
0	92	29.912886771015	2
0	94	30.392014043677	1
0	101	31.735020558301	2
0	105	32.526760919632	3
0	107	32.87556910786	4
0	108	33.758783447028	3
0	114	34.612927497756	2
0	121	35.287646580571	3
0	123	37.559645060079	4
0	126	40.450846597733	3
0	134	42.641863964064	4
0	136	43.437871366817	5
0	138	45.120014374421	6
0	139	45.899485596776	5
0	145	47.511990120016	4
0	151	49.214087090998	3
0	159	50.525559617041	4
0	162	51.744998317271	3
0	168	54.814036026822	2
0	181	56.613750427591	3
0	183	60.205537335284	4
0	184	61.895568605889	3
0	192	63.466015005971	4
0	198	69.604200577668	3
0	204	73.840464207935	2
0	213	74.689693412186	1
0	219	75.071212047856	2
0	223	77.731980232818	3
0	226	78.378727732493	2
0	232	79.20045690004	1
0	238	79.415533139568	2
0	239	80.433200632865	1
0	245	80.608912569155	2
0	250	83.862988694801	1
0	258	87.326881939161	0
0	264	88.711865057001	1
0	266	92.129465083105	0
0	278	95.159209167409	1
0	280	96.454176823637	2
0	282	97.515723427091	3
0	283	97.546531241748	2
0	288	98.715709475403	1
0	293	99.081797597565	0
0	303	100.098980535018	1
0	305	101.436591010581	0
0	311	101.865862132561	1
0	317	105.529569670935	2
0	319	108.048819780169	1
0	325	109.302710979715	0
0	337	111.24662968653	1
0	340	113.293972988833	0
0	346	113.314330268006	1
0	347	113.767298146639	0
0	353	113.862871950612	1
0	357	115.767194717582	0
0	368	118.168221642995	1
0	370	118.842416987977	0
0	387	125.947182420215	1
0	391	127.229428489853	2
0	393	127.970416938037	3
0	399	130.967474040076	4
0	401	131.847731667253	5
0	402	134.460071436987	4
0	410	135.819953699651	5
0	411	137.381593716994	4
0	417	137.796056240593	3
0	422	139.631163265705	2
0	430	142.439505794281	1
0	435	142.458481814129	0
0	442	143.286191490392	1
0	444	143.933850520568	2
0	446	147.028495440917	1
0	451	147.94142668747	0
0	493	172.974828204285	1
0	494	173.313234621836	0
0	509	181.020435969943	1
0	511	181.53464516207	2
0	512	182.041357423656	1
0	517	182.112455402523	0
0	528	183.928724594374	1
0	529	184.041631309537	0
0	540	184.735087122094	1
0	542	185.62012372763	2
0	546	187.488246439164	1
0	551	187.980037947917	0
0	555	188.68292433445	1
0	559	190.433912883576	2
0	568	192.335593190745	3
0	573	192.883164756845	4
0	577	195.282364852603	5
0	581	196.575973177404	6
0	583	199.363043200697	7
0	584	199.410248983469	6
0	589	199.532487536624	5
0	594	200.848218077255	4
0	599	204.254061972216	3
0	604	205.006458927809	2
0	608	206.236890137252	3
0	610	206.261673660653	4
0	612	209.962591408292	5
0	616	212.835964711502	4
0	630	215.293338691963	3
0	636	215.370422109975	4
0	637	215.994039552189	3
0	644	218.972459055984	4
0	648	224.082591048816	5
0	650	224.900348409789	6
0	652	225.733515572927	7
0	653	227.982924193758	6
0	659	228.633559973431	5
0	664	228.855294035208	4
0	669	229.990905666688	3
0	674	231.344338705613	2
0	681	232.383962797388	3
0	684	234.019528159213	2
0	690	235.606747520678	1
0	700	239.645690695652	0
0	719	243.473565412364	1
0	721	243.994430090301	2
0	722	245.274756358523	1
0	728	247.579969588041	0
0	745	251.213044646942	1
0	747	254.382528615138	2
0	749	254.618360294469	3
0	750	255.124496413257	2
0	755	256.038435115828	1
0	761	256.178236719196	0
0	771	259.657580106993	1
0	773	260.772457359826	2
0	774	261.343319701171	1
0	784	269.443786987141	0
0	806	277.630284903364	1
0	809	278.330385880568	0
0	816	279.226524848443	1
0	817	279.595052352032	0
0	826	281.305099985673	1
0	827	281.69773913702	0
0	851	291.854732163955	1
0	853	293.628805555977	2
0	856	296.279954522193	1
0	861	296.503403796612	0
0	876	298.298936204169	1
0	879	300.27186316509	0
0	887	302.357409106402	1
0	890	307.891529740658	0
0	902	311.941816050397	1
0	904	311.991273294242	2
0	906	312.187081504328	3
0	908	312.460055897565	4
0	910	314.433622479067	5
0	914	322.112194166562	6
0	918	326.07479934975	7
0	919	327.074327308724	6
0	926	329.236412556472	5
0	931	332.427738908941	4
0	936	332.69394119353	3
0	941	335.432831635455	2
0	949	338.524728790259	1
0	955	339.961262915097	0
0	961	340.122043738119	1
0	964	341.140983153651	0
0	982	344.491659201742	1
0	984	349.10275726213	2
0	985	350.619776954636	1
0	991	350.622222228504	2
0	998	353.003080055404	1
0	1003	353.125797273183	0
0	1009	353.594119696412	1
0	1011	353.629471887559	2
0	1012	355.020953684258	1
0	1019	357.790226660307	2
0	1021	358.531614427655	1
0	1028	361.662647497745	0
0	1043	369.99955532165	1
0	1045	371.333092032456	2
0	1046	371.931091241135	1
0	1051	371.997049932998	0
0	1063	374.191017025583	1
0	1066	374.444302707582	2
0	1068	375.530701611685	3
0	1069	375.85357101228	2
0	1076	377.434639948551	1
0	1084	377.724636840474	2
0	1087	380.099301840558	3
0	1090	381.282935519478	4
0	1091	381.922387318007	3
0	1098	382.358441277981	4
0	1099	383.160178433798	3
0	1106	384.398070929049	4
0	1115	385.681880606257	5
0	1118	387.408350693939	4
0	1125	388.782471076597	3
0	1133	389.769279905999	4
0	1135	389.789619698442	5
0	1136	389.951157222696	4
0	1143	390.661485197182	3
0	1149	393.848361732938	4
0	1151	394.110558305398	5
0	1160	405.722401443876	4
0	1164	408.085340902182	5
0	1166	408.496235400247	6
0	1170	410.285705561145	7
0	1171	419.595741169214	6
0	1179	424.25177680339	5
0	1186	425.185794080741	4
0	1193	427.519674937788	3
0	1197	427.882233981551	4
0	1199	428.988672350438	5
0	1201	428.995205814968	6
0	1204	430.201780678569	5
0	1210	431.294505935208	6
0	1217	433.944736954659	7
0	1225	437.821901755634	8
0	1228	439.871933435252	9
0	1230	442.676418226599	10
0	1231	442.961387722776	9
0	1238	443.692831855346	10
0	1239	444.833921622699	9
0	1245	449.964037725855	8
0	1251	450.178726063951	9
0	1254	450.723535073151	8
0	1261	452.261991222728	7
0	1267	455.556177473494	8
0	1268	456.18889555301	7
0	1272	456.298371749053	8
0	1277	457.913303932463	9
0	1278	462.242961271366	8
0	1286	467.783193086574	9
0	1287	468.863225796357	8
0	1292	469.609894531857	7
0	1297	470.736035107385	6
0	1302	472.194783968402	5
0	1311	478.004832293052	6
0	1313	479.879459397756	7
0	1314	480.456539288002	6
0	1322	481.717184266049	7
0	1324	482.78847695957	8
0	1326	483.380332438236	9
0	1327	483.860100975375	8
0	1333	484.929895027863	7
0	1339	484.948784870247	8
0	1342	486.836422762731	7
0	1347	486.923611823807	6
0	1352	487.567871245918	5
0	1357	488.101038868661	4
0	1361	488.805246120452	5
0	1363	490.934459592123	6
0	1369	493.957918010807	7
0	1373	495.11725485856	8
0	1375	496.029947521993	9
0	1377	496.299466966706	10
0	1380	499.984649856066	9
0	1385	501.202220439411	8
0	1394	504.217611816263	9
0	1396	504.802755677444	10
0	1397	506.848736601166	9
0	1403	507.482184580935	10
0	1407	515.565406430599	11
0	1409	516.391233215163	12
0	1410	516.588609090284	11
0	1417	517.493654164425	10
0	1423	519.68553045134	9
0	1429	520.054368691213	8
0	1434	520.925587205456	7
0	1444	523.425312568107	8
0	1445	523.683609118436	7
0	1452	523.919595293833	6
0	1463	528.662984149475	7
0	1465	529.576884994006	8
0	1468	531.331344637991	7
0	1475	534.993522181573	6
0	1480	535.135572626415	5
0	1485	536.997463344603	4
0	1493	540.59758567679	5
0	1494	540.885249554073	4
0	1500	543.495709871518	5
0	1503	545.795292789742	4
0	1509	551.590966216753	5
0	1511	552.236710403692	6
0	1515	554.057152441657	7
0	1517	554.521931994029	8
0	1518	555.604390328615	7
0	1526	558.500512034923	8
0	1530	561.158054472957	9
0	1532	564.172829442028	8
0	1538	564.407320847706	9
0	1540	564.960111155541	10
0	1543	568.61494419089	11
0	1544	570.314443766774	10
0	1550	571.80330363851	9
0	1557	572.524426189964	10
0	1558	572.680563391587	9
0	1564	574.289591405034	10
0	1565	576.527619552993	9
0	1570	576.625755848676	8
0	1575	579.771039637098	7
0	1586	583.64452075687	6
0	1591	583.914472241812	5
0	1595	584.244545180739	6
0	1598	586.531592848801	5
0	1605	589.225881672584	4
0	1610	591.659215472268	3
0	1616	594.602295533796	2
0	1627	596.300567900735	1
0	1638	599.488540313026	0
0	1644	600.135747425434	1
0	1645	601.92504656411	0
0	1651	602.820000324982	1
0	1653	603.126708290518	2
0	1654	603.301422269041	1
0	1664	608.821122524259	0
0	1671	610.677896722043	1
0	1673	610.740107655316	2
0	1674	612.244086846552	1
0	1679	612.511495962964	0
0	1685	616.089996501665	1
0	1687	616.78070878305	0
0	1693	617.36494652807	1
0	1696	617.893814176108	2
0	1699	618.167863053096	3
0	1701	618.281664281423	4
0	1704	618.831744856445	5
0	1705	623.051778634669	4
0	1712	623.713329575598	3
0	1719	623.904445739896	4
0	1720	623.964284515889	3
0	1725	624.369478338855	2
0	1731	624.692302399556	3
0	1733	625.17152028689	4
0	1734	625.951758711613	3
0	1738	626.106189406645	4
0	1742	627.488164598389	5
0	1743	627.750919962647	4
0	1747	629.422537512108	5
0	1759	634.298330195125	6
0	1761	636.722042704091	7
0	1762	637.649697268667	6
0	1767	639.391257975694	5
0	1776	642.012439736453	6
0	1777	642.979499119133	5
0	1783	643.713821583277	6
0	1784	644.373344661689	5
0	1789	646.761250790408	4
0	1795	650.857102631025	5
0	1796	651.226117493454	4
0	1801	652.009582038142	3
0	1808	653.349704530944	2
0	1819	655.66226494974	3
0	1824	656.913277745377	2
0	1830	657.853193017242	3
0	1833	658.228336993467	2
0	1837	660.028143472428	3
0	1839	661.04707908643	4
0	1843	662.270592986567	5
0	1845	662.681160668876	6
0	1849	663.90623867113	5
0	1855	664.915677155108	4
0	1862	668.31841238525	3
0	1867	668.520054085845	2
0	1872	668.648445378768	1
0	1876	669.954454957804	2
0	1878	670.262192862387	3
0	1881	671.526564363619	2
0	1886	674.039360182126	1
0	1894	675.829936840227	0
0	1918	679.879970230811	1
0	1922	680.556650946817	2
0	1926	684.332918161497	1
0	1931	684.447495202545	0
0	1937	684.713559105513	1
0	1938	685.673426248428	0
0	1949	686.645629351715	1
0	1951	686.870123103313	2
0	1952	686.927807044359	1
0	1961	689.401103594151	2
0	1965	690.535658483869	3
0	1968	692.208085761295	4
0	1969	698.66521555263	3
0	1974	699.075744736981	2
0	1980	699.201040104449	3
0	1982	700.44667194544	2
0	1988	700.670537381252	3
0	1990	700.819917070167	4
0	1994	704.158147506221	5
0	2004	710.599757102	6
0	2006	711.169899034642	7
0	2007	711.667914199113	6
0	2016	714.575023280987	7
0	2017	715.379391592026	6
0	2023	715.697541669034	5
0	2029	715.835062257172	4
0	2035	718.117569642655	3
0	2040	718.552309364009	2
0	2045	718.836806954203	1
0	2051	719.349714575024	2
0	2054	720.484923734512	1
0	2061	721.510565580891	2
0	2062	722.937291977828	1
0	2068	722.968908991581	2
0	2069	723.01747673974	1
0	2075	724.947699392638	2
0	2080	726.362402623027	1
0	2086	732.019879980736	2
0	2087	732.526319532855	1
0	2091	733.0662737189	2
0	2093	734.176218483383	3
0	2098	736.779698571035	2
0	2108	740.822499578714	3
0	2109	741.193642299081	2
0	2114	741.9664416145	1
0	2119	742.736918824227	0
0	2155	751.043541855761	1
0	2156	751.26759273656	0
0	2164	755.451261259615	1
0	2167	758.524374587047	2
0	2169	759.951484967012	3
0	2170	761.790655626526	2
0	2176	761.817705731156	3
0	2177	762.130779079558	2
0	2183	763.296949423906	3
0	2186	768.494889177596	2
0	2194	768.6529104528	1
0	2199	769.194265625345	0
0	2210	771.311753630646	1
0	2212	771.981726076768	2
0	2214	771.985143666662	3
0	2218	774.100929950533	4
0	2220	779.947202027751	5
0	2224	781.504200844863	6
0	2232	787.659299727279	7
0	2234	790.132898210559	8
0	2235	791.982952018651	7
0	2243	794.067639070432	6
0	2248	795.758101144918	5
0	2254	799.544141711693	4
0	2261	801.134563425921	3
0	2267	801.525963884777	4
0	2268	801.571654761336	3
0	2276	803.446384930997	4
0	2278	803.739814598322	5
0	2279	803.900040103978	4
0	2285	805.652656016637	3
0	2294	807.750996271955	4
0	2295	808.068526448942	3
0	2304	811.731593816498	2
0	2309	813.469532925246	1
0	2314	815.025575877689	0
0	2333	817.455901917542	1
0	2335	818.297649200179	0
0	2342	818.53117684747	1
0	2343	818.64137151752	0
0	2359	824.599246725242	1
0	2362	826.983846385331	0
0	2369	829.650312557907	1
0	2372	831.387430636932	0
0	2389	833.037485009653	1
0	2391	834.890949397773	2
0	2392	835.186560384093	1
0	2400	837.402662316151	0
0	2408	838.320733890827	1
0	2415	847.435256656918	0
0	2425	849.261407865736	1
0	2428	849.969878300382	0
0	2437	850.708087564633	1
0	2440	853.343416984508	0
0	2452	855.552779388844	1
0	2454	855.873027498793	2
0	2456	857.568611576423	3
0	2463	861.114777749259	2
0	2469	862.756195392046	3
0	2471	864.83571069539	2
0	2477	866.148013352225	1
0	2483	868.715249994024	0
0	2500	877.38428633727	1
0	2501	877.788011706936	0
0	2511	878.775408472511	1
0	2515	882.17085322737	2
0	2517	882.924321319314	3
0	2518	883.905446157776	2
0	2524	883.94243753869	3
0	2526	888.37616681809	2
0	2535	894.788230985411	1
0	2540	896.160217238044	0
0	2567	900.45720515453	1
0	2568	900.701942006862	0
0	2587	907.004476211348	1
0	2588	907.484608347878	0
0	2614	912.482838944201	1
0	2615	912.653355085057	0
0	2623	914.890779446294	1
0	2625	916.168407598873	2
0	2627	921.088378690545	1
0	2635	923.355844094602	0
0	2646	924.477588100925	1
0	2647	925.053940693954	0
0	2659	929.510460750341	1
0	2660	929.527612150105	0
0	2675	932.345061742907	1
0	2680	936.706146042803	0
0	2694	940.373806779612	1
0	2695	941.307097343365	0
0	2701	942.211719117657	1
0	2702	943.121681081066	0
0	2712	946.17456446546	1
0	2713	946.541944406995	0
0	2729	947.925351928443	1
0	2733	950.086117439666	2
0	2734	951.528776931805	1
0	2741	953.350451575411	0
0	2760	966.643529141901	1
0	2764	967.60194301112	2
0	2768	969.627858908634	3
0	2772	975.649507309753	4
0	2773	976.989223643307	3
0	2778	977.204237470695	2
0	2784	978.100336326404	3
0	2786	978.575400118949	2
0	2791	979.398771928221	1
0	2798	982.838892307189	0
0	2835	996.633904190743	1
0	2836	996.667234601183	0
0	2842	998.038318562055	1
0	2844	998.665397127685	0
0	2851	999.791328574425	1
0	2852	1000.451434318363	0
0	2861	1001.019485256016	1
0	2866	1002.467868573099	2
0	2867	1004.463732458405	1
0	2874	1005.500058367504	2
0	2878	1008.725963346122	3
0	2879	1009.023991280773	2
0	2885	1010.674614915438	1
0	2891	1010.967258054284	0
0	2898	1011.336026044915	1
0	2899	1011.446585297419	0
0	2911	1014.914166531285	1
0	2913	1016.310602838316	2
0	2915	1016.986675740757	1
0	2923	1018.9727338914	2
0	2924	1020.721814160354	1
0	2929	1022.520479121847	0
0	2941	1025.916053493339	1
0	2943	1026.126709800103	2
0	2947	1026.732182159014	1
0	2953	1027.001334075396	2
0	2955	1030.029078053812	1
0	2962	1030.670733905504	2
0	2963	1030.718770205467	1
0	2970	1031.932292323226	0
0	3025	1054.454247485865	1
0	3027	1056.377597380898	2
0	3031	1063.24615053307	3
0	3032	1065.384547958656	2
0	3039	1066.558165676907	1
0	3045	1067.214475570201	2
0	3050	1070.5026814422	3
0	3053	1073.691781976364	2
0	3060	1076.761144426297	3
0	3061	1078.684405217964	2
0	3066	1078.835543526117	1
0	3075	1079.636097306045	2
0	3079	1080.794237584656	3
0	3081	1083.688237993506	4
0	3082	1083.86236162778	3
0	3089	1084.19530228517	4
0	3095	1088.394285916838	3
0	3100	1090.361030714589	2
0	3108	1092.306301294762	3
0	3112	1093.588619855727	4
0	3118	1097.273612911272	5
0	3121	1098.921323367279	4
0	3126	1099.238373515636	3
0	3134	1104.807363688085	4
0	3135	1104.904214451651	3
0	3143	1106.267040483579	4
0	3145	1107.172156895545	3
0	3153	1108.477585078909	2
0	3159	1109.998362450055	1
0	3166	1112.090993531526	2
0	3168	1114.170215977803	3
0	3170	1115.029242544585	4
0	3171	1117.233481034638	3
0	3178	1119.766249428487	4
0	3180	1121.205117295469	5
0	3182	1121.63650036979	6
0	3186	1124.406704918423	7
0	3189	1126.653926764129	6
0	3195	1127.704214522619	5
0	3200	1127.866340134732	4
0	3209	1131.050528244764	3
0	3214	1131.827389838518	2
0	3219	1132.033821649189	1
0	3224	1133.653017335376	0
0	3228	1134.327258103385	1
0	3230	1135.325024183654	2
0	3233	1137.25460772378	1
0	3238	1138.808581300305	0
0	3275	1149.648757682811	1
0	3278	1151.781710835106	0
0	3284	1151.956277440683	1
0	3285	1152.638335925681	0
0	3316	1162.590564824141	1
0	3321	1170.757090030175	0
0	3341	1181.654244569422	1
0	3343	1181.733369492896	2
0	3347	1181.759646939356	3
0	3348	1182.215254857285	2
0	3353	1182.876317528061	1
0	3359	1182.971860910923	2
0	3363	1183.502713332313	3
0	3367	1185.359703940686	4
0	3369	1185.910951478641	5
0	3371	1186.825446444635	6
0	3372	1190.084402449701	5
0	3378	1191.420170166964	4
0	3386	1192.764108245044	5
0	3388	1192.788722265551	6
0	3390	1194.262564259732	7
0	3391	1194.989856508002	6
0	3396	1194.9923694968	5
0	3405	1197.864611461641	4
0	3410	1198.01888312152	3
0	3416	1198.46377328548	4
0	3418	1200.583551033525	3
0	3425	1201.132347741552	2
0	3430	1201.255418687549	1
0	3436	1201.750458969418	2
0	3439	1203.387206309122	3
0	3443	1206.196979185933	4
0	3444	1206.426876831472	3
0	3451	1208.597604887245	4
0	3453	1209.14616597503	5
0	3454	1210.70184122913	4
0	3459	1211.952192891328	3
0	3465	1212.994290357786	2
0	3470	1213.789886103401	1
0	3475	1215.320372336236	0
0	3481	1216.841368118787	1
0	3484	1217.349791464525	0
0	3490	1219.569285605324	1
0	3491	1222.165800639474	0
0	3502	1230.230024144871	1
0	3504	1230.324952229207	2
0	3507	1235.217715459685	1
0	3514	1236.324359377535	2
0	3515	1236.969928116554	1
0	3520	1237.28774095383	0
0	3567	1250.021067507567	1
0	3572	1253.945241960101	0
0	3579	1255.096698709968	1
0	3581	1255.372863032167	2
0	3583	1256.339720984153	1
0	3594	1258.620858909844	2
0	3600	1265.041116291987	3
0	3608	1267.409359627448	4
0	3609	1267.593765096747	3
0	3616	1268.800075628664	4
0	3617	1270.359962027028	3
0	3623	1272.085723172161	2
0	3633	1273.562076069792	3
0	3635	1274.808991135166	4
0	3637	1275.658950353104	5
0	3638	1276.35673843208	4
0	3643	1276.748139593687	3
0	3652	1279.500000382883	2
0	3663	1281.031062975581	1
0	3669	1282.201880313404	0
0	3702	1295.420534593081	1
0	3703	1300.923164185079	0
0	3714	1301.382426681007	1
0	3719	1307.003372827048	2
0	3720	1307.22819367887	1
0	3725	1307.644442656142	0
0	3732	1307.67555677645	1
0	3741	1312.158682131651	0
0	3758	1316.582080971904	1
0	3759	1321.427508455219	0
0	3778	1325.095451972913	1
0	3780	1325.361870019277	2
0	3781	1327.763108680199	1
0	3787	1329.133250977711	0
0	3793	1329.251634779056	1
0	3794	1329.464678936961	0
0	3800	1329.548410107614	1
0	3802	1329.987726896233	0
0	3817	1333.562101016394	1
0	3819	1336.339258369816	2
0	3830	1343.203569667299	3
0	3837	1347.294761508624	2
0	3842	1347.988541125637	1
0	3847	1349.000677519967	0
0	3855	1350.23896319774	1
0	3857	1350.555316872569	2
0	3859	1353.531420101265	1
0	3864	1353.796778588586	0
0	3870	1354.371056510598	1
0	3874	1356.093767793112	0
0	3900	1364.00743429392	1
0	3902	1364.074314741776	2
0	3903	1364.458554386338	1
0	3908	1364.775886386838	0
0	3914	1364.795708920198	1
0	3915	1365.459268036061	0
0	3921	1365.895044443525	1
0	3925	1367.394884725967	0
0	3934	1370.357164663024	1
0	3935	1372.157538237918	0
0	3941	1372.471897446648	1
0	3943	1373.242237201787	2
0	3944	1375.727032826441	1
0	3950	1376.081843667338	2
0	3951	1378.662739022231	1
0	3956	1379.600278298362	0
0	3980	1385.666070194718	1
0	3981	1386.005648712207	0
0	3999	1389.411188623231	1
0	4002	1390.359828660482	2
0	4004	1392.409456487247	3
0	4005	1393.311243354186	2
0	4010	1393.326943092396	1
0	4015	1394.037978988684	0
0	4034	1395.881390056206	1
0	4036	1397.802539362917	0
0	4064	1403.902947593463	1
0	4068	1404.962197222324	2
0	4069	1406.044033329302	1
0	4075	1406.25200086377	2
0	4077	1406.371775096568	3
0	4080	1409.754767029377	4
0	4081	1409.857422409425	3
0	4086	1410.092736985876	2
0	4091	1411.120552032202	1
0	4095	1411.800329584899	2
0	4098	1412.313110885393	1
0	4102	1413.177844510602	2
0	4104	1413.882791338804	3
0	4106	1414.918044385687	4
0	4114	1420.922107545535	5
0	4115	1423.200064861944	4
0	4125	1426.273511658271	3
0	4131	1426.463262385445	2
0	4136	1427.403049160953	1
0	4142	1427.962042541351	2
0	4143	1428.550478318282	1
0	4150	1431.329564371478	0
0	4176	1440.2643200449	1
0	4177	1440.660220744298	0
0	4192	1443.450054333805	1
0	4193	1443.845243517321	0
0	4211	1448.433350761686	1
0	4212	1448.636301701378	0
0	4229	1452.25120710615	1
0	4231	1453.095981713038	2
0	4232	1453.567808523416	1
0	4239	1455.411991127141	0
0	4261	1460.917337348404	1
0	4262	1461.901714836028	0
0	4268	1464.410120014701	1
0	4269	1464.434362147732	0
0	4276	1467.587693081382	1
0	4277	1469.015127049268	0
0	4291	1473.488688187396	1
0	4295	1474.71337037558	2
0	4298	1475.176559811944	1
0	4305	1477.628295444962	0
0	4312	1480.377658656145	1
0	4316	1480.916593683295	2
0	4319	1482.442423249026	3
0	4322	1484.037362307473	4
0	4328	1489.643935394265	3
0	4334	1489.991785240896	4
0	4337	1494.223101988338	5
0	4339	1495.887232548302	6
0	4344	1498.381439840815	5
0	4357	1500.77736192718	6
0	4358	1500.995805478994	5
0	4367	1502.680937635188	4
0	4373	1505.254852457249	3
0	4378	1505.488662219495	2
0	4386	1510.374117344105	3
0	4388	1510.770148755528	4
0	4389	1515.593045679798	3
0	4400	1518.36356498117	2
0	4408	1521.87519109902	3
0	4409	1522.494541377897	2
0	4415	1523.170395257694	3
0	4416	1523.683763476919	2
0	4421	1524.36977609805	1
0	4429	1527.278210710303	2
0	4430	1528.581368963991	1
0	4439	1535.555246971841	0
0	4447	1540.222627536746	1
0	4448	1542.705862218985	0
0	4463	1551.373853810011	1
0	4464	1553.080436784883	0
0	4480	1554.710724203603	1
0	4482	1554.739237608239	2
0	4484	1555.023128437218	3
0	4486	1556.485123845623	4
0	4489	1558.01623916887	3
0	4495	1558.15652160304	4
0	4496	1558.453697710881	3
0	4510	1561.927982923549	2
0	4515	1562.143365545331	1
0	4522	1568.843356716689	0
0	4529	1570.592594198005	1
0	4530	1570.986335057468	0
0	4563	1579.146011207387	1
0	4564	1580.402608003997	0
0	4574	1583.770366160459	1
0	4576	1583.99838324595	2
0	4579	1584.668818370229	1
0	4586	1586.117695326873	2
0	4587	1586.485126143744	1
0	4594	1588.669955709231	2
0	4595	1591.486517180671	1
0	4600	1591.552227145997	0
0	4615	1595.110171485569	1
0	4616	1595.288788064125	0
0	4629	1596.727605411958	1
0	4630	1597.194979154375	0
0	4645	1601.509410911183	1
0	4646	1603.095981685523	0
0	4677	1612.699948839036	1
0	4682	1615.605163970353	2
0	4683	1619.550227135467	1
0	4691	1621.183866865195	2
0	4692	1621.208958416675	1
0	4698	1622.409635770022	0
0	4713	1624.00605559877	1
0	4720	1631.831224839449	0
0	4736	1635.151077942588	1
0	4738	1637.823621929582	0
0	4750	1640.100276819199	1
0	4752	1640.374788037007	2
0	4758	1643.980380581833	1
0	4765	1646.760039956223	2
0	4768	1647.384297538715	1
0	4773	1647.598529165453	0
0	4805	1655.853013445618	1
0	4810	1660.196386430487	0
0	4830	1663.506729672583	1
0	4832	1664.253607293697	2
0	4838	1666.904280818374	3
0	4839	1667.059288391584	2
0	4845	1669.060158636693	1
0	4851	1671.274317024997	0
0	4859	1671.926227659815	1
0	4860	1675.36403975828	0
0	4888	1683.041844413399	1
0	4890	1684.335783805879	2
0	4892	1686.916376572849	3
0	4893	1687.386977323217	2
0	4898	1687.676204191584	1
0	4905	1691.181463931379	2
0	4907	1691.732173626095	1
0	4912	1693.813172562779	0
0	4918	1694.074408126526	1
0	4922	1696.66261357613	0
0	4928	1698.553889322436	1
0	4929	1699.973605112377	0
0	4939	1702.42298506256	1
0	4941	1702.622506392522	2
0	4943	1702.991531801201	1
0	4949	1703.244202085727	2
0	4951	1705.00985203709	1
0	4956	1705.42302036978	0
0	4962	1705.880907889132	1
0	4963	1706.54237138522	0
0	4969	1707.369117827657	1
0	4970	1708.208451716078	0
0	4976	1709.169621595922	1
0	4977	1710.155800099524	0
0	4983	1712.399221181621	1
0	4984	1712.768821390405	0
0	4991	1720.949488197772	1
0	4996	1724.472853039501	2
0	4997	1724.725941443555	1
0	5005	1725.907749475848	2
0	5006	1727.518518762636	1
0	5016	1733.722563207075	2
0	5018	1733.847780954819	3
0	5020	1733.853572530286	4
0	5022	1733.964959155976	5
0	5024	1738.517381953296	6
0	5026	1739.476636570073	7
0	5027	1741.820928825417	6
0	5033	1744.009894749118	5
0	5038	1744.846180043206	4
0	5043	1744.947359224608	3
0	5048	1745.177583829172	2
0	5055	1746.533941464482	1
0	5061	1747.441222187669	0
0	5072	1748.134640808927	1
0	5075	1749.167553557702	0
0	5083	1751.719929986	1
0	5086	1754.717187718912	0
0	5096	1757.472790165578	1
0	5098	1761.058892590755	0
0	5104	1761.563104132458	1
0	5106	1761.999928744	0
0	5126	1767.008070849222	1
0	5132	1772.350697624304	2
0	5133	1772.463829894449	1
0	5140	1773.040302262551	0
0	5148	1776.502116449404	1
0	5149	1778.040525449225	0
0	5178	1786.731221639885	1
0	5181	1790.485786715801	0
0	5198	1792.301591846266	1
0	5201	1798.485553245121	0
0	5217	1805.162575664213	1
0	5218	1806.592017618329	0
0	5241	1813.535562196232	1
0	5244	1814.125371848165	0
0	5257	1817.00225627938	1
0	5258	1817.414338197801	0
0	5265	1817.841298100316	1
0	5266	1817.969251922671	0
0	5273	1818.142768633695	1
0	5276	1818.958668851462	0
0	5299	1821.595075537762	1
0	5300	1821.638223539998	0
0	5309	1824.027442144954	1
0	5318	1829.632996251807	0
0	5341	1832.789030857454	1
0	5342	1832.881595949321	0
0	5355	1834.488235009703	1
0	5356	1835.035364787035	0
0	5374	1838.353759042021	1
0	5378	1840.026578939605	0
0	5405	1849.649739834564	1
0	5408	1851.703132998184	0
0	5420	1854.140157775298	1
0	5422	1854.448885620836	2
0	5425	1858.056715306612	1
0	5435	1859.403394960829	2
0	5436	1860.691330444964	1
0	5441	1862.006913379842	0
0	5456	1865.950855848967	1
0	5457	1866.808641202124	0
0	5470	1868.783874129571	1
0	5472	1874.059230014009	2
0	5474	1874.482782761397	3
0	5475	1874.640229416009	2
0	5480	1875.257054307887	1
0	5487	1876.319549565416	0
0	5493	1877.106327800758	1
0	5495	1879.156662356722	0
0	5512	1884.215159561726	1
0	5514	1885.514144024654	2
0	5519	1893.215925119661	3
0	5520	1893.603535177302	2
0	5526	1893.847669743742	3
0	5528	1894.13431025538	4
0	5530	1894.438769128728	3
0	5539	1896.305407357144	2
0	5545	1896.868887104271	1
0	5550	1897.119818291561	0
0	5556	1897.545513742918	1
0	5559	1898.834849230179	2
0	5560	1899.322772573476	1
0	5566	1900.840916516874	0
0	5580	1902.575746963504	1
0	5586	1908.722865567679	2
0	5588	1909.578123218838	3
0	5590	1910.309809603466	4
0	5591	1911.183023473795	3
0	5597	1911.63151037434	4
0	5598	1912.392542394973	3
0	5610	1916.695194488164	4
0	5611	1920.05948241351	3
0	5617	1920.408766425609	4
0	5622	1923.57876412183	5
0	5623	1924.747371278372	4
0	5629	1925.058834654208	5
0	5630	1926.408928958115	4
0	5637	1928.636670294897	5
0	5642	1930.515561603834	6
0	5647	1933.187862486105	7
0	5648	1933.207948854632	6
0	5654	1933.846245127994	5
0	5661	1934.283875774148	6
0	5664	1938.236042111098	5
0	5669	1939.971715312399	4
0	5675	1940.813697943392	5
0	5677	1940.996154242554	6
0	5678	1941.360627435875	5
0	5685	1941.802880587669	6
0	5686	1942.765172241626	5
0	5691	1943.025159746171	4
0	5697	1947.787346630482	5
0	5702	1956.282288497052	4
0	5710	1960.066988249849	5
0	5711	1961.801832550655	4
0	5716	1962.069772242005	3
0	5720	1962.700492833404	4
0	5724	1964.604305896886	3
0	5732	1967.034543647415	4
0	5733	1967.433591995935	3
0	5743	1968.712918489088	4
0	5745	1969.043027474975	5
0	5746	1969.287117259073	4
0	5753	1971.726950709648	5
0	5755	1971.9341241929	6
0	5756	1972.154351292877	5
0	5763	1973.260335087697	6
0	5764	1973.767873992604	5
0	5769	1974.749215380222	4
0	5775	1975.135082414191	5
0	5778	1976.528597356938	4
0	5786	1979.897557565087	3
0	5797	1981.461564685762	4
0	5798	1981.607948272646	3
0	5804	1984.101626174528	2
0	5810	1984.657429164592	3
0	5812	1987.321267703057	4
0	5814	1989.816628509107	5
0	5816	1990.007983792507	6
0	5820	1992.510523012405	7
0	5821	1996.338301713862	6
0	5830	1998.560845949513	5
0	5835	1998.599947750143	4
0	5844	2002.085723560528	5
0	5845	2002.290878529607	4
0	5851	2002.855757796347	5
0	5853	2003.08491325998	6
0	5857	2004.52455133251	5
0	5863	2004.679069811626	6
0	5867	2005.936400464989	7
0	5869	2007.078387725995	8
0	5870	2007.131253108088	7
0	5876	2007.593775401186	8
0	5877	2007.599270418833	7
0	5883	2007.653743367925	8
0	5887	2008.358391742853	7
0	5894	2010.683362886226	8
0	5895	2014.542424318847	7
0	5900	2016.476099725294	6
0	5904	2016.931850227123	7
0	5907	2017.901268858689	6
0	5914	2023.959589653602	5
0	5920	2024.404762008733	4
0	5926	2024.897878144194	5
0	5927	2025.306329922297	4
0	5932	2027.495495794459	3
0	5939	2028.828054413366	4
0	5940	2029.318795636519	3
0	5951	2031.810602767332	4
0	5954	2032.026618328885	3
0	5959	2033.108572548711	2
0	5963	2033.783070879931	3
0	5966	2035.711723722407	2
0	5972	2043.030711617622	1
0	5977	2043.214660305082	0
0	5983	2049.391363393812	1
0	5984	2052.461992801613	0
0	5990	2052.903010764078	1
0	5991	2052.951054720581	0
0	5995	2055.374490264685	1
0	6000	2059.555748848553	2
0	6003	2060.362258897372	1
0	6008	2060.3791056736	0
0	6023	2061.923719042286	1
0	6024	2062.599648524578	0
0	6030	2064.924842297494	1
0	6033	2066.41001121285	2
0	6034	2067.657237510644	1
0	6040	2069.88756471509	2
0	6044	2071.739172173754	1
0	6049	2072.877437983917	0
0	6067	2082.17149073712	1
0	6069	2084.862223966571	2
0	6071	2087.643118339433	3
0	6073	2089.248579417414	4
0	6077	2092.141105160919	5
0	6080	2092.392433241989	4
0	6085	2092.545842096365	3
0	6091	2093.553194576359	2
0	6097	2093.57578116838	3
0	6099	2094.257751863513	4
0	6105	2100.500758011565	3
0	6111	2103.149087821262	2
0	6116	2104.47540590276	1
0	6130	2110.03637452513	2
0	6131	2113.209306623659	1
0	6137	2115.956008907885	0
0	6163	2125.153986252249	1
0	6165	2125.374303011545	2
0	6170	2127.791522209547	1
0	6175	2128.012514765924	0
0	6186	2133.500326893306	1
0	6189	2133.78320599623	2
0	6191	2135.931094006713	1
0	6197	2136.360930909969	2
0	6198	2136.991496701554	1
0	6203	2137.477039177415	0
0	6216	2138.44690494548	1
0	6220	2140.308787068012	0
0	6229	2140.591882979502	1
0	6237	2142.119335867695	2
0	6241	2143.364636127108	1
0	6250	2146.332846755661	0
0	6267	2152.873993291833	1
0	6271	2153.844052890664	2
0	6273	2153.984185479878	3
0	6275	2154.693095614439	4
0	6277	2155.768275483258	5
0	6278	2156.541511437059	4
0	6286	2159.704466686053	3
0	6295	2162.030588942468	4
0	6296	2162.473547648909	3
0	6302	2162.98842849777	4
0	6305	2164.253507865375	5
0	6307	2169.859968873784	6
0	6308	2171.479590987778	5
0	6315	2171.579210886241	6
0	6316	2172.237413341027	5
0	6322	2173.227990796647	4
0	6327	2174.364147517828	3
0	6334	2176.10710062326	2
0	6340	2176.337830871519	1
0	6348	2177.179444842313	2
0	6349	2177.76683847368	1
0	6354	2178.270449099405	0
0	6368	2182.212865192708	1
0	6371	2182.412218004784	0
0	6385	2184.869012096394	1
0	6386	2188.580943478438	0
0	6398	2195.52828631598	1
0	6401	2196.974064394657	0
0	6423	2203.237414494851	1
0	6424	2205.034734849346	0
0	6431	2207.897275487725	1
0	6432	2208.720208624007	0
0	6446	2211.855985229114	1
0	6448	2214.847988052413	2
0	6449	2214.9592386193	1
0	6455	2215.087001050076	2
0	6457	2216.631061891142	1
0	6464	2219.25722621052	2
0	6465	2219.544359093209	1
0	6473	2219.866134194734	0
0	6482	2221.830208042636	1
0	6487	2224.839684852672	0
0	6507	2232.3896473661	1
0	6509	2232.452704066223	2
0	6511	2232.453038691382	3
0	6512	2232.633040199128	2
0	6521	2232.942242004485	3
0	6523	2233.355765280276	2
0	6529	2234.913246784394	1
0	6534	2235.04111157175	0
0	6542	2236.166942365533	1
0	6543	2236.426518528207	0
0	6557	2239.147230012582	1
0	6559	2239.996068203724	2
0	6563	2240.968508075408	3
0	6564	2241.163144454168	2
0	6573	2244.341290098548	3
0	6574	2245.217857437552	2
0	6579	2245.482773391588	1
0	6586	2246.376423046593	0
0	6592	2246.717041975639	1
0	6593	2246.736474293778	0
0	6597	2246.848076151474	1
0	6599	2248.322349961339	2
0	6605	2255.222786037815	1
0	6611	2259.107356451206	0
0	6617	2259.195800994007	1
0	6618	2260.855145395351	0
0	6624	2261.806021151889	1
0	6625	2262.105011002376	0
0	6642	2264.296726150783	1
0	6643	2265.156741319785	0
0	6662	2269.480540929332	1
0	6664	2271.100553250364	2
0	6667	2272.243362602077	1
0	6675	2273.963104581638	0
0	6700	2282.597983257388	1
0	6702	2283.969265299292	2
0	6704	2284.771768721644	3
0	6707	2286.032380240431	2
0	6712	2286.425605201849	1
0	6726	2292.341824548182	2
0	6728	2295.673511113073	3
0	6733	2303.152514183132	2
0	6738	2303.33453231573	1
0	6746	2305.84133197953	0
0	6752	2305.849578037605	1
0	6755	2306.037903759568	2
0	6757	2306.590957583453	3
0	6758	2309.322570534978	2
0	6764	2316.6841803805	1
0	6771	2318.945429996837	2
0	6773	2320.205599356154	3
0	6774	2320.257845123691	2
0	6780	2320.881847307222	3
0	6781	2321.367506127308	2
0	6788	2321.855958251091	1
0	6796	2327.864451541827	0
0	6803	2329.135083045413	1
0	6804	2329.843895377453	0
0	6815	2332.522441925528	1
0	6817	2333.602633972223	2
0	6819	2335.044265184665	3
0	6824	2338.451157172986	4
0	6826	2338.769460648065	5
0	6827	2339.771439751142	4
0	6835	2341.443974596079	5
0	6837	2345.125271127248	6
0	6839	2346.214478205103	7
0	6842	2346.912870443567	8
0	6844	2348.482345795387	9
0	6847	2350.594355936181	8
0	6853	2350.980862229663	9
0	6855	2352.473823574133	8
0	6860	2352.741031255406	7
0	6866	2352.979753670477	6
0	6873	2354.80421338283	5
0	6880	2357.218778915757	6
0	6882	2358.480774171245	7
0	6884	2360.32769299826	8
0	6885	2361.685051414272	7
0	6891	2362.194722055337	8
0	6893	2362.694689480089	9
0	6899	2365.687099005376	8
0	6906	2367.3039413637	7
0	6911	2367.979278336583	6
0	6917	2368.804161259523	5
0	6930	2374.644987686075	4
0	6935	2375.513157377932	3
0	6942	2378.537604636437	2
0	6951	2387.46873823946	3
0	6952	2387.500068457969	2
0	6958	2388.257971736456	1
0	6963	2388.469366203076	0
0	6974	2390.307789021454	1
0	6975	2392.020502397193	0
0	6982	2392.472634997439	1
0	6983	2392.933473597318	0
0	6991	2395.458494392242	1
0	6994	2397.556589333225	2
0	6998	2398.950797074985	3
0	7000	2399.736148910883	4
0	7001	2402.256015894976	3
0	7008	2405.37560471814	2
0	7014	2405.500690220103	3
0	7016	2407.688917229923	2
0	7022	2408.719706469573	1
0	7029	2411.246357408245	2
0	7033	2412.9697054439	3
0	7034	2415.864902800988	2
0	7039	2416.740581509033	1
0	7047	2419.558374626339	2
0	7048	2420.141532301816	1
0	7053	2420.28569081861	0
0	7059	2420.322205235637	1
0	7061	2421.922909313028	2
0	7062	2422.555276384128	1
0	7073	2426.381188252946	0
0	7081	2432.10226549758	1
0	7082	2432.691934741152	0
0	7089	2437.348859108051	1
0	7092	2439.241145993747	0
0	7123	2445.136503642557	1
0	7125	2446.576714038647	2
0	7129	2447.698843586357	3
0	7132	2450.033708492132	2
0	7137	2450.883634260441	1
0	7144	2451.768645571099	0
0	7157	2456.193566825777	1
0	7159	2456.400703567309	2
0	7160	2456.754155067314	1
0	7166	2457.79586100284	0
0	7192	2471.027966955986	1
0	7194	2471.650159197573	0
0	7217	2477.997013110459	1
0	7219	2480.288118963685	2
0	7223	2481.81493253221	3
0	7227	2482.732495006086	4
0	7237	2486.761205342118	5
0	7238	2486.814711154763	4
0	7245	2488.016940772969	5
0	7246	2489.608804012245	4
0	7255	2491.448293699405	3
0	7260	2491.879644419918	2
0	7266	2491.928333951821	1
0	7272	2492.963432891546	0
0	7279	2493.198558498479	1
0	7282	2493.672294053941	2
0	7285	2497.753148226777	1
0	7290	2497.763639228719	0
0	7304	2502.715415445067	1
0	7308	2503.624650637839	2
0	7309	2504.759065785802	1
0	7316	2505.66088514737	2
0	7318	2506.828560532919	3
0	7320	2508.071801162732	4
0	7321	2508.459705783459	3
0	7328	2508.502381670355	4
0	7329	2508.527658366274	3
0	7334	2509.575889011849	2
0	7339	2510.837462808995	1
0	7344	2511.026026565355	0
0	7348	2511.301800529192	1
0	7352	2513.116600044194	2
0	7355	2517.498016024521	1
0	7361	2518.812364128884	2
0	7367	2519.47059360588	3
0	7368	2520.503180331597	2
0	7372	2521.844001334718	3
0	7376	2522.434565740796	4
0	7379	2524.154924954053	5
0	7383	2525.393195453532	6
0	7386	2527.609731698608	5
0	7393	2528.367967219174	6
0	7394	2531.352053889105	5
0	7400	2532.46073046733	4
0	7405	2533.358499512873	3
0	7411	2534.045103116824	2
0	7417	2535.081099601968	3
0	7419	2536.706528240723	4
0	7422	2538.425452333035	3
0	7427	2539.480958927047	2
0	7438	2543.449834731095	3
0	7439	2544.090940528047	2
0	7446	2544.975500035997	3
0	7448	2545.210154406924	4
0	7449	2545.41637037203	3
0	7461	2550.312094273141	2
0	7467	2550.41150584609	3
0	7468	2550.539324927789	2
0	7474	2550.857783470226	3
0	7475	2551.123066683993	2
0	7480	2552.280506920008	1
0	7484	2557.658966405673	2
0	7488	2562.399674333562	3
0	7493	2565.909149690314	2
0	7501	2569.510689277261	1
0	7508	2572.97355447448	2
0	7509	2574.506405868493	1
0	7515	2575.081800228601	2
0	7517	2575.789771060839	3
0	7518	2578.771231958754	2
0	7522	2579.043818032154	3
0	7525	2580.781459248161	2
0	7533	2581.643164545669	3
0	7535	2581.648017232079	4
0	7537	2581.666881742302	3
0	7542	2582.269057827197	2
0	7548	2585.351690588559	3
0	7550	2585.352668372312	4
0	7551	2587.622595579407	3
0	7555	2588.171654726517	4
0	7558	2590.214451770214	3
0	7564	2592.08451273427	4
0	7567	2595.538274510316	5
0	7570	2596.189375200377	4
0	7578	2597.061564606802	3
0	7587	2599.919805440854	4
0	7588	2600.916806247749	3
0	7596	2603.93010144833	2
0	7601	2606.655106186059	1
0	7607	2607.596102647573	2
0	7608	2609.374259299607	1
0	7614	2612.145648206579	2
0	7616	2614.428786852716	3
0	7618	2614.805176568402	4
0	7620	2616.370764993466	5
0	7623	2619.316924387931	4
0	7627	2621.977862808265	5
0	7633	2622.848029251547	6
0	7636	2623.23530346796	7
0	7639	2624.39588135758	6
0	7644	2626.142166098857	5
0	7655	2629.700869374647	6
0	7657	2630.025098635716	7
0	7658	2632.038960220864	6
0	7673	2643.202294077471	7
0	7675	2649.259548442327	8
0	7677	2649.796098232757	9
0	7678	2649.892070484017	8
0	7683	2649.954181213681	7
0	7689	2653.283955732041	8
0	7690	2654.547630325607	7
0	7697	2655.159047463733	8
0	7698	2656.821864046844	7
0	7709	2658.817654155881	8
0	7710	2660.602521897885	7
0	7715	2661.415067427189	6
0	7720	2663.151102876907	5
0	7726	2664.405276081825	4
0	7732	2664.934681676338	5
0	7734	2666.380060834249	4
0	7739	2666.849983466731	3
0	7743	2668.213387618448	4
0	7747	2671.71260265276	3
0	7753	2672.354902831758	2
0	7759	2672.64870473003	3
0	7761	2673.586337404676	2
0	7771	2677.307900630326	3
0	7773	2683.47917146901	2
0	7779	2692.143156327028	1
0	7787	2697.130076393107	2
0	7788	2698.972467223921	1
0	7793	2699.547178353695	0
0	7819	2706.35474726442	1
0	7820	2707.407993897533	0
0	7827	2708.145673086868	1
0	7830	2709.183309114499	0
0	7842	2712.770027649318	1
0	7845	2713.731203463747	0
0	7854	2715.989339758941	1
0	7855	2715.998467368559	0
0	7864	2716.399913074907	1
0	7872	2720.125503743351	0
0	7879	2722.410429896137	1
0	7880	2722.511730988424	0
0	7901	2735.890896421253	1
0	7905	2738.587512703168	2
0	7907	2739.438712114024	3
0	7909	2740.320882899102	4
0	7910	2740.951379286301	3
0	7915	2741.441132803742	2
0	7922	2741.776678049249	3
0	7927	2744.171336732468	4
0	7931	2748.238852985464	5
0	7932	2749.573729918086	4
0	7941	2752.873493069329	5
0	7942	2754.096043369832	4
0	7948	2754.850380044217	3
0	7959	2759.687196596124	4
0	7960	2760.339079140016	3
0	7966	2763.161979960339	2
0	7974	2764.125523558265	3
0	7975	2765.04861787111	2
0	7983	2767.88375554491	1
0	7988	2770.535494379366	0
0	7999	2771.996278178926	1
0	8003	2773.717653139195	2
0	8004	2774.093806582405	1
0	8010	2774.540255288345	0
0	8021	2774.842495571315	1
0	8025	2775.527530853553	0
0	8032	2776.86374086697	1
0	8034	2779.568988155401	0
0	8047	2780.995431802264	1
0	8048	2782.279246108522	0
0	8060	2787.562208238831	1
0	8062	2790.625993585691	2
0	8063	2796.648554607331	1
0	8068	2796.723137693895	0
0	8084	2800.221496709923	1
0	8087	2803.849277217443	0
0	8106	2810.297699143431	1
0	8109	2813.137059551155	0
0	8123	2816.552586666102	1
0	8125	2816.841319591645	2
0	8128	2821.822084651342	1
0	8135	2822.763969892803	0
0	8141	2822.820529137016	1
0	8142	2823.004311929446	0
0	8156	2825.71678333666	1
0	8160	2827.372820126571	2
0	8162	2828.789593762492	1
0	8167	2829.730544226581	0
0	8171	2829.739907684188	1
0	8177	2831.390399808084	2
0	8178	2831.482418819389	1
0	8184	2834.141693357046	2
0	8186	2834.765106379217	3
0	8189	2837.252419213018	2
0	8196	2838.481808356867	3
0	8200	2842.208822116621	2
0	8205	2842.557271507196	1
0	8211	2843.67927258601	2
0	8213	2844.646495573024	3
0	8215	2845.69115549344	2
0	8220	2845.881505774192	1
0	8226	2847.754680158427	0
0	8235	2849.689790998059	1
0	8239	2852.249108951433	2
0	8240	2852.539751772985	1
0	8248	2854.453998436158	0
0	8265	2859.414550543361	1
0	8268	2862.640302644082	0
0	8280	2867.340923288537	1
0	8281	2872.56846287241	0
0	8288	2873.699539585627	1
0	8292	2876.933684213127	2
0	8293	2877.961816508666	1
0	8299	2878.651517492534	2
0	8301	2880.297531091855	3
0	8304	2880.921129778846	4
0	8305	2881.344275866001	3
0	8311	2882.24347512757	2
0	8318	2882.778970046071	3
0	8320	2884.19073686136	4
0	8322	2885.288403487012	5
0	8324	2885.649520642226	6
0	8325	2887.684127006137	5
0	8330	2887.972932912503	4
0	8338	2888.945823125667	5
0	8341	2890.810111047802	4
0	8346	2891.418656928673	3
0	8351	2892.204020449268	2
0	8356	2896.048213159612	1
0	8363	2898.047405532591	0
0	8394	2904.130029673385	1
0	8400	2907.699638010338	2
0	8402	2908.477958462038	3
0	8403	2909.369504216331	2
0	8410	2911.991489326581	3
0	8411	2917.49323353683	2
0	8416	2917.65074483502	1
0	8421	2918.052477565339	0
0	8428	2919.011269287317	1
0	8429	2919.222281736782	0
0	8441	2921.691821951937	1
0	8446	2927.020706443641	0
0	8453	2928.324148803841	1
0	8455	2928.425019830287	2
0	8457	2928.854069827418	3
0	8459	2931.399309625743	2
0	8464	2931.742693952931	1
0	8472	2934.168066812044	0
0	8479	2935.083276734134	1
0	8481	2935.705005011983	2
0	8482	2936.964392236609	1
0	8490	2937.889322034051	0
0	8512	2943.465660470637	1
0	8514	2943.642217487673	2
0	8516	2943.673878321728	3
0	8518	2944.079408822865	4
0	8520	2945.750795835159	5
0	8524	2946.289941599987	6
0	8527	2949.117340263297	7
0	8528	2949.929396823319	6
0	8535	2952.262083796565	7
0	8537	2952.584850144957	8
0	8538	2953.082805743871	7
0	8545	2954.733641450472	6
0	8550	2957.052233749874	5
0	8560	2960.4676009548	4
0	8566	2963.155956391743	3
0	8573	2963.975338088309	4
0	8575	2964.425762015573	5
0	8577	2965.900018983388	4
0	8583	2967.424918391044	5
0	8588	2968.76917812335	4
0	8594	2969.450256246389	3
0	8600	2971.377171491716	2
0	8607	2974.86386576729	1
0	8613	2975.456881892254	2
0	8616	2979.180688227779	3
0	8618	2981.416545773379	2
0	8623	2981.780337600489	1
0	8629	2982.8176875421	0
0	8637	2984.259093202829	1
0	8639	2984.799050781795	2
0	8640	2988.607555610088	1
0	8646	2992.082287062178	0
0	8658	2994.515633874776	1
0	8659	2995.069766378659	0
0	8666	2995.700101093219	1
0	8668	2997.062707068285	2
0	8669	2998.626422880702	1
0	8678	3001.502201220966	2
0	8680	3001.623150577942	3
0	8684	3005.919603930884	4
0	8685	3006.897686976305	3
0	8691	3007.579948382685	4
0	8692	3008.780267430704	3
0	8698	3009.67353780816	2
0	8704	3010.329592167402	3
0	8707	3012.390278359041	2
0	8713	3012.836955201755	3
0	8714	3016.426634521614	2
0	8720	3017.058112962661	1
0	8725	3018.316837271329	0
0	8745	3022.232834048368	1
0	8746	3023.565467549535	0
0	8777	3033.097882302233	1
0	8778	3036.450136858915	0
0	8795	3039.232887618815	1
0	8798	3041.788025304483	0
0	8816	3047.132667629394	1
0	8821	3048.360155920824	0
0	8836	3056.343302287777	1
0	8837	3057.395694650779	0
0	8881	3085.572924102137	1
0	8882	3087.838068787523	0
0	8896	3089.620159793754	1
0	8901	3092.427961522368	0
0	8924	3100.308509547819	1
0	8926	3100.985576924154	2
0	8927	3102.031065836705	1
0	8935	3103.210074649484	0
0	8964	3110.197029557944	1
0	8966	3110.74596214183	0
0	9000	3119.553721714567	1
0	9003	3125.488622178927	0
0	9017	3129.886811899944	1
0	9018	3130.068309359691	0
0	9024	3130.455755508187	1
0	9025	3130.999061594261	0
0	9033	3132.037326515894	1
0	9038	3135.361502954354	2
0	9039	3138.627027764879	1
0	9044	3139.158263524692	0
0	9050	3139.203512480375	1
0	9052	3140.234667307784	2
0	9054	3140.464285733913	3
0	9055	3140.75919172875	2
0	9060	3141.362226142744	1
0	9070	3143.992052137634	2
0	9073	3147.569028778965	1
0	9078	3147.998906710884	0
0	9085	3148.997318858522	1
0	9086	3149.42618978614	0
0	9101	3155.618721457589	1
0	9103	3156.551658756781	2
0	9105	3157.410337678493	3
0	9108	3159.017003294064	2
0	9114	3161.256412345595	1
0	9119	3162.608719496632	0
0	9125	3163.954727271597	1
0	9128	3166.146038581752	0
0	9146	3167.93405020909	1
0	9147	3168.086428418854	0
0	9180	3178.794868810671	1
0	9183	3180.610114320474	0
0	9199	3183.436658664029	1
0	9205	3185.582154995771	2
0	9209	3186.171076420489	1
0	9220	3193.004392040033	2
0	9222	3193.876750069216	3
0	9223	3194.922555919928	2
0	9229	3195.653990200318	1
0	9237	3196.384376689782	2
0	9238	3197.83252551204	1
0	9243	3198.55310364831	0
0	9249	3200.046672684566	1
0	9254	3203.79187708552	0
0	9286	3208.786886171561	1
0	9291	3210.539142260342	2
0	9296	3212.249014440796	1
0	9305	3215.50142615128	2
0	9307	3215.705024204124	3
0	9308	3220.533418518711	2
0	9318	3221.952972901588	1
0	9325	3222.556329503756	0
0	9332	3223.176884416742	1
0	9333	3223.571105937448	0
0	9339	3225.491912990272	1
0	9340	3226.821328080719	0
0	9350	3231.181535313903	1
0	9351	3233.721982020814	0
0	9357	3235.202636890838	1
0	9360	3240.297465980171	0
0	9367	3242.59252684173	1
0	9370	3247.059388712727	0
0	9376	3247.222580438622	1
0	9379	3248.699351629554	2
0	9384	3250.255734692602	3
0	9388	3251.118275998022	4
0	9391	3254.527138401383	5
0	9392	3254.721687595117	4
0	9397	3255.121686403655	3
0	9402	3256.354114934477	2
0	9409	3257.872196924102	3
0	9411	3263.191866206443	4
0	9413	3264.058718825938	5
0	9414	3266.303993827279	4
0	9420	3268.654701281167	3
0	9428	3269.728741156486	2
0	9434	3273.598283789646	1
0	9440	3274.453552918482	2
0	9444	3274.968688752851	3
0	9445	3275.354379306259	2
0	9451	3276.613043840261	1
0	9460	3277.501119889516	2
0	9464	3281.416943864639	1
0	9471	3282.131292166601	2
0	9472	3282.52279275344	1
0	9478	3284.036877410383	0
0	9500	3291.350839028702	1
0	9503	3293.523264744223	0
0	9532	3306.765061881315	1
0	9533	3308.15390220123	0
0	9544	3312.04212855802	1
0	9545	3312.46460046299	0
0	9555	3316.653902475389	1
0	9557	3318.550705861872	2
0	9558	3319.063964971309	1
0	9563	3319.237146627884	0
0	9596	3336.291912032196	1
0	9597	3336.812979242637	0
0	9612	3339.148431991853	1
0	9613	3341.032335228828	0
0	9620	3343.909625703807	1
0	9621	3344.872437909855	0
0	9637	3347.227759049139	1
0	9638	3347.347503049201	0
0	9652	3349.021405963088	1
0	9656	3353.687017734218	2
0	9660	3355.204744080076	3
0	9663	3356.843602031209	4
0	9669	3358.982701689918	3
0	9674	3358.987069680965	2
0	9682	3361.970017594709	1
0	9688	3363.726489190131	2
0	9689	3363.92008830709	1
0	9694	3364.369360438953	0
0	9705	3370.040546147675	1
0	9706	3370.286718284191	0
0	9713	3373.334066942897	1
0	9714	3375.159784422289	0
0	9736	3382.600535878946	1
0	9740	3385.007546409787	0
0	9756	3387.364403059901	1
0	9758	3389.038425581204	0
0	9768	3402.074392911928	1
0	9773	3412.390830764551	0
0	9783	3417.718475268274	1
0	9788	3420.729967098273	0
0	9801	3423.273409156368	1
0	9802	3423.769148692098	0
0	9808	3423.950677420753	1
0	9813	3431.828965317439	2
0	9814	3433.020213608821	1
0	9820	3434.017516838341	0
0	9827	3435.285377457517	1
0	9828	3436.144624730571	0
0	9835	3441.614638123402	1
0	9836	3443.05649812209	0
0	9842	3444.242567428588	1
0	9844	3444.751204406242	0
0	9867	3450.613805118627	1
0	9868	3451.243122861392	0
0	9915	3471.23695697119	1
0	9921	3474.150643119888	2
0	9922	3474.201686578784	1
0	9928	3474.802223663322	2
0	9930	3477.751991221013	1
0	9936	3478.40951095929	2
0	9938	3479.508700686219	1
0	9945	3480.599651503376	0
0	9963	3487.084681872512	1
0	9964	3487.267356391316	0
0	9970	3487.67852228131	1
0	9972	3488.466449614085	0
0	9980	3488.681082957385	1
0	9981	3488.979223562923	0
0	9987	3489.444621391892	1
0	9988	3489.494889527786	0
0	9995	3489.68651734213	1
0	9996	3492.378691552427	0
0	10011	3494.385630959416	1
0	10015	3495.121738219887	2
0	10017	3495.239567196321	3
0	10018	3495.734684419234	2
0	10027	3498.217826004983	1
0	10032	3498.821116667022	0
0	10039	3499.506001642086	1
0	10043	3502.202086343765	0
0	10050	3505.670883344847	1
0	10051	3505.684768164258	0
0	10073	3511.562404974988	1
0	10075	3512.028846268034	2
0	10080	3513.568946603274	1
0	10085	3513.877908383784	0
0	10116	3529.91614637892	1
0	10118	3530.496475483466	2
0	10120	3531.029465027303	3
0	10121	3532.452917856797	2
0	10126	3532.4596607387	1
0	10132	3532.709930818667	2
0	10133	3534.039970951363	1
0	10139	3534.715938890044	2
0	10146	3540.035041339807	3
0	10147	3540.218090880973	2
0	10154	3541.210987085114	3
0	10157	3544.29689345324	2
0	10166	3549.987776806421	3
0	10167	3550.795229542816	2
0	10172	3551.635146671039	1
0	10182	3556.405318424787	2
0	10183	3556.530222984035	1
0	10188	3556.690042615509	0
0	10194	3557.248019288086	1
0	10195	3557.860081398124	0
0	10215	3563.200076648907	1
0	10219	3571.075432716287	2
0	10223	3572.197816185123	3
0	10224	3572.720675112485	2
0	10232	3579.507949768234	1
0	10238	3579.948075065952	0
0	10246	3581.740304510917	1
0	10248	3582.549809088849	0
0	10254	3582.595585162112	1
0	10257	3584.589196320337	0
0	10270	3586.2205204082	1
0	10271	3588.110374780765	0
0	10278	3589.120627667467	1
0	10279	3589.185597441255	0
0	10285	3589.660805593428	1
0	10287	3590.058428976428	2
0	10288	3590.536821129503	1
0	10293	3590.694973832335	0
0	10303	3592.063095530503	1
0	10310	3594.667836359705	0
0	10323	3598.774202505077	1
0	10325	3599.687438922273	2
0	10327	3599.962385699086	3
0	10329	3601.846334126746	4
0	10331	3602.464773502979	5
0	10333	3603.299721665536	6
0	10334	3603.895117850744	5
0	10340	3604.869662181098	6
0	10341	3605.614210697227	5
0	10346	3606.996540662662	4
0	10353	3608.113966112221	5
0	10354	3608.178649599047	4
0	10364	3613.044075162496	3
0	10369	3613.173789280094	2
0	10376	3615.631916681277	1
0	10384	3616.692718917864	0
0	10399	3619.827967095675	1
0	10400	3619.958853666129	0
0	10407	3626.306100189067	1
0	10409	3627.6273458933	0
0	10415	3628.091361555237	1
0	10417	3630.103427290127	0
0	10429	3633.814327737023	1
0	10431	3635.246129630314	2
0	10432	3636.1712652141	1
0	10438	3636.484285116203	0
0	10446	3637.896022799466	1
0	10450	3642.211137475733	0
0	10457	3644.342318940843	1
0	10458	3646.069998287092	0
0	10465	3647.694365588463	1
0	10467	3648.402773022953	2
0	10470	3648.606620434752	1
0	10476	3650.707585985986	0
0	10497	3654.749906812032	1
0	10499	3655.669967889947	0
0	10505	3655.944582858808	1
0	10507	3656.314739009861	2
0	10508	3656.868187494693	1
0	10515	3659.325567336088	0
0	10529	3660.439944194883	1
0	10531	3660.996235382947	2
0	10536	3662.10801671446	3
0	10539	3662.456050687582	4
0	10542	3663.492673873437	3
0	10548	3666.891831738535	2
0	10555	3667.14367568065	1
0	10560	3667.500709228883	0
0	10566	3667.908600411739	1
0	10568	3668.231719664956	2
0	10573	3670.446793962902	1
0	10578	3671.209815347955	0
0	10597	3674.975088682545	1
0	10599	3676.147117971487	2
0	10601	3676.440819728112	3
0	10602	3676.798362351463	2
0	10608	3677.984795859893	3
0	10610	3680.008710025682	2
0	10615	3681.426705301653	1
0	10622	3685.299501563963	0
0	10630	3688.933434189277	1
0	10631	3692.274344727275	0
0	10650	3694.609479119051	1
0	10653	3699.55804850999	0
0	10664	3702.198240268292	1
0	10666	3702.701068319706	2
0	10668	3702.944082848552	3
0	10672	3710.063850866705	2
0	10677	3710.601942107206	1
0	10684	3711.210317122563	2
0	10686	3711.522317864597	3
0	10688	3712.839972504169	2
0	10696	3714.580497958381	1
0	10701	3716.493140520797	0
0	10715	3718.77771616645	1
0	10716	3719.163684878513	0
0	10728	3724.06292113057	1
0	10735	3732.046891000278	0
0	10746	3735.216377637918	1
0	10747	3737.823668769001	0
0	10760	3740.74169671197	1
0	10761	3742.920307627102	0
0	10769	3746.347629505519	1
0	10770	3747.58019559274	0
0	10776	3747.714563124286	1
0	10778	3748.156058682813	2
0	10780	3752.342830197668	1
0	10789	3753.478804859837	0
0	10826	3763.273005547121	1
0	10828	3764.438969731076	2
0	10836	3773.162567068826	1
0	10841	3773.201633298049	0
0	10855	3773.857552912302	1
0	10860	3776.446709421463	0
0	10878	3789.078286510975	1
0	10880	3790.300139572884	2
0	10883	3795.570152092958	1
0	10888	3796.213024922789	0
0	10897	3796.935542113298	1
0	10898	3797.523352252606	0
0	10904	3798.620891920669	1
0	10907	3798.957075722506	2
0	10908	3799.103655951268	1
0	10914	3799.688729061632	2
0	10918	3800.855860678078	3
0	10921	3803.640583340236	2
0	10926	3803.974623191187	1
0	10931	3804.038405127505	0
0	10938	3804.43869420116	1
0	10944	3805.618184409026	0
0	10970	3808.245367309223	1
0	10971	3808.37474567592	0
0	10983	3811.782331488011	1
0	10988	3816.588114755465	0
0	11016	3832.242687904235	1
0	11017	3832.448668987653	0
0	11027	3834.879037363924	1
0	11030	3836.367564456299	2
0	11033	3842.069926718955	1
0	11038	3842.242147610952	0
0	11051	3845.060925570323	1
0	11055	3845.378278279689	2
0	11057	3845.828476933965	3
0	11058	3846.945455920654	2
0	11063	3847.210094628666	1
0	11069	3847.816588659843	2
0	11070	3847.983486953513	1
0	11078	3849.546263962457	0
0	11084	3850.50652026961	1
0	11093	3854.070622254545	2
0	11096	3857.071876260423	3
0	11098	3857.493424299033	4
0	11099	3857.588823150945	3
0	11104	3860.853035027133	2
0	11113	3864.056079461873	3
0	11115	3864.418101312526	4
0	11117	3865.076358644677	5
0	11121	3865.745092088147	6
0	11122	3866.293980991946	5
0	11129	3867.651754963094	4
0	11134	3867.865128758309	3
0	11138	3867.989203755121	4
0	11141	3870.596277943661	3
0	11146	3871.600439040878	2
0	11151	3872.665497574247	1
0	11155	3873.069802247287	2
0	11160	3874.90265081642	1
0	11167	3877.104600815511	0
0	11200	3888.172560212508	1
0	11201	3888.616264565695	0
0	11214	3892.209274691183	1
0	11217	3895.86800793525	0
0	11234	3898.322911244616	1
0	11235	3898.659891463739	0
0	11241	3899.286698771314	1
0	11242	3899.440652117147	0
0	11274	3914.854163456207	1
0	11277	3916.96117244845	0
0	11304	3921.449150522157	1
0	11307	3923.26537248358	0
0	11314	3924.81988825497	1
0	11316	3925.918125609583	2
0	11317	3926.585696297876	1
0	11323	3927.431951266624	0
0	11375	3947.846677417686	1
0	11377	3949.074921255309	2
0	11384	3952.130912691925	1
0	11390	3952.365190323018	2
0	11395	3952.731697806148	3
0	11396	3953.359800082517	2
0	11402	3953.429670470779	3
0	11407	3954.888341290693	4
0	11408	3956.533747403994	3
0	11413	3958.220679769276	2
0	11419	3959.400405720308	1
0	11424	3959.634950630863	0
0	11434	3962.605214831434	1
0	11436	3964.589281238698	0
0	11451	3970.058754174428	1
0	11452	3975.161169593474	0
0	11458	3975.201922980159	1
0	11459	3975.76016329941	0
0	11465	3976.4851342152	1
0	11469	3979.236002705425	2
0	11470	3979.507361114248	1
0	11476	3980.052601702026	0
0	11484	3982.866197395738	1
0	11485	3983.262659073583	0
0	11500	3984.421273870136	1
0	11504	3986.023841053537	0
0	11515	3986.40437753972	1
0	11519	3991.60451470837	0
0	11529	3996.699286285244	1
0	11532	3998.591925593603	0
0	11542	3999.099396277707	1
0	11547	4001.419362961188	2
0	11549	4002.512981739897	3
0	11550	4003.44501137265	2
0	11558	4005.882029917762	1
0	11575	4016.345716325768	2
0	11576	4018.14685100717	1
0	11582	4019.056745763921	0
0	11591	4020.53716138853	1
0	11592	4021.529217950022	0
0	11599	4023.347394050177	1
0	11600	4023.85976799533	0
0	11612	4024.916768878515	1
0	11613	4025.602881094762	0
0	11638	4028.786689180624	1
0	11643	4032.654776948139	0
0	11667	4038.036965565406	1
0	11670	4038.370047847566	0
0	11678	4039.058963615446	1
0	11681	4041.766202746002	0
0	11693	4045.375543706572	1
0	11695	4046.008905327793	2
0	11697	4046.092767887075	3
0	11698	4046.141037430591	2
0	11703	4046.29747693013	1
0	11709	4046.708894507813	0
0	11738	4055.243613006249	1
0	11739	4056.817569508403	0
0	11759	4063.396374258241	1
0	11762	4068.410477693202	0
0	11771	4069.374929323929	1
0	11776	4076.066498574235	0
0	11797	4080.405039389889	1
0	11803	4085.753932132435	2
0	11804	4087.806131564111	1
0	11809	4088.770046535109	0
0	11822	4091.689145091785	1
0	11824	4095.84345313897	2
0	11833	4101.987542512028	1
0	11840	4104.750690871129	2
0	11842	4105.976187744155	3
0	11844	4106.789770319046	4
0	11846	4107.49795417974	5
0	11849	4113.033005065684	4
0	11856	4115.474289558387	5
0	11857	4116.649823531781	4
0	11863	4117.915844221268	5
0	11866	4118.090865658887	6
0	11867	4119.026269662698	5
0	11873	4121.163832063185	6
0	11875	4121.338370555556	7
0	11876	4121.583247666621	6
0	11881	4122.213558586597	5
0	11887	4123.832381914916	6
0	11890	4126.071866588771	5
0	11901	4129.380949081607	4
0	11906	4130.609569156489	3
0	11920	4136.032979573761	4
0	11921	4137.486381242772	3
0	11927	4137.610679799457	4
0	11928	4138.533129741916	3
0	11938	4143.471040009217	2
0	11944	4143.991585936663	3
0	11946	4144.190509884155	4
0	11949	4145.062885698834	5
0	11952	4145.8255867759	6
0	11953	4148.612662929202	5
0	11958	4148.719897569235	4
0	11965	4149.583686604919	3
0	11972	4150.316544376261	4
0	11973	4151.902211700445	3
0	11979	4154.414033961193	2
0	11986	4156.658139437506	3
0	11987	4156.74724919535	2
0	11993	4157.299515774029	3
0	11995	4158.054716612751	4
0	11997	4160.464684389053	3
0	12006	4164.487326487182	2
0	12013	4166.128146654397	3
0	12015	4167.587188179827	2
0	12022	4169.566789871764	1
0	12030	4171.578607464382	2
0	12031	4172.563621265198	1
0	12036	4172.85540227846	0
0	12040	4173.711902571781	1
0	12042	4173.852588953171	2
0	12045	4178.025958505703	1
0	12051	4184.320090661519	0
0	12058	4185.198668384615	1
0	12060	4187.249521633316	0
0	12078	4190.593538805602	1
0	12079	4190.81750800176	0
0	12090	4191.603155840253	1
0	12092	4192.321005936594	2
0	12093	4193.845690709255	1
0	12098	4194.884090808112	0
0	12104	4195.663977017987	1
0	12106	4198.584607198347	0
0	12113	4201.632590940811	1
0	12115	4202.554808556018	2
0	12116	4203.630407261872	1
0	12121	4204.89347461378	0
0	12129	4207.476758546331	1
0	12131	4208.490654949949	0
0	12135	4209.138952472486	1
0	12140	4210.085519756232	0
0	12158	4212.444161758631	1
0	12159	4218.222211664083	0
0	12173	4222.355660937025	1
0	12176	4223.970791895608	0
0	12182	4224.536611999235	1
0	12183	4224.923096326676	0
0	12192	4229.72824594308	1
0	12193	4231.099579286475	0
0	12205	4232.971969454066	1
0	12206	4232.978828115104	0
0	12212	4233.137645224536	1
0	12214	4234.63045628684	0
0	12220	4235.056294759417	1
0	12222	4236.349358191887	0
0	12233	4237.658239626072	1
0	12235	4238.44346073874	2
0	12237	4238.578289678898	3
0	12238	4240.784988097968	2
0	12246	4242.985883681227	3
0	12247	4244.012885948772	2
0	12255	4249.843880963968	1
0	12263	4250.535704171708	2
0	12265	4251.562223245602	1
0	12270	4251.747029023146	0
0	12285	4256.697865264567	1
0	12286	4258.049048693249	0
0	12297	4260.682342970635	1
0	12300	4263.881766895822	2
0	12301	4263.909209850389	1
0	12307	4264.308759505568	0
0	12313	4266.006948610485	1
0	12314	4268.360964416143	0
0	12320	4268.389609287306	1
0	12321	4268.711915964713	0
0	12333	4270.95669464595	1
0	12334	4271.012961304298	0
0	12360	4279.029415157229	1
0	12361	4281.832834013488	0
0	12367	4281.867694314211	1
0	12369	4281.885472482191	2
0	12371	4289.55707902557	1
0	12377	4290.45217870067	2
0	12382	4292.808166768125	3
0	12383	4293.227769350971	2
0	12388	4293.418441675085	1
0	12394	4294.793954112608	0
0	12422	4303.559513166638	1
0	12428	4304.921376943184	2
0	12430	4305.267265102054	3
0	12433	4307.266651841878	2
0	12438	4307.963976687877	1
0	12444	4308.130880848455	2
0	12445	4308.644254728257	1
0	12454	4313.746290501757	0
0	12474	4319.617283610124	1
0	12480	4322.125534969818	2
0	12481	4322.484347799799	1
0	12487	4323.640718214612	0
0	12511	4331.841712479757	1
0	12517	4334.212021372503	2
0	12518	4335.92592875191	1
0	12525	4336.678161099535	2
0	12527	4337.36677316063	3
0	12528	4337.521980211109	2
0	12535	4338.992388263374	3
0	12536	4340.560523260294	2
0	12541	4341.367218254387	1
0	12546	4342.071680731546	0
0	12552	4342.97154716639	1
0	12554	4343.627951324706	0
0	12566	4348.408376707857	1
0	12567	4348.640817949273	0
0	12578	4350.775663290645	1
0	12580	4352.642981074073	2
0	12584	4353.312216815989	3
0	12590	4356.735230751489	4
0	12591	4356.776837163924	3
0	12599	4359.084626607246	4
0	12604	4366.253005968302	3
0	12608	4366.293675643401	4
0	12612	4366.624524247326	5
0	12618	4368.242528314833	4
0	12631	4371.624142086579	3
0	12636	4371.953663407667	2
0	12642	4372.569123743205	3
0	12643	4372.841755457967	2
0	12650	4374.491007114717	3
0	12652	4375.811401642823	4
0	12655	4377.549982199095	3
0	12660	4377.789533657463	2
0	12665	4379.403229762846	1
0	12670	4379.686581385243	0
0	12703	4395.458332257117	1
0	12704	4396.135851842511	0
0	12731	4403.148833231308	1
0	12734	4404.787952060438	0
0	12740	4405.947779349348	1
0	12741	4406.975417015745	0
0	12765	4411.916428584987	1
0	12775	4416.509211658507	2
0	12780	4421.803859459724	1
0	12785	4421.851556522789	0
0	12814	4429.557979577104	1
0	12815	4432.287594822028	0
0	12838	4438.597637028586	1
0	12844	4441.406541520319	2
0	12845	4442.886919892339	1
0	12850	4442.999246672475	0
0	12856	4444.670561850281	1
0	12857	4446.33876464863	0
0	12892	4454.730703082389	1
0	12895	4455.356108754115	0
0	12903	4456.803403016281	1
0	12907	4460.577109727227	0
0	12930	4472.685439887259	1
0	12931	4473.215910372786	0
0	12948	4477.691384482738	1
0	12954	4481.254318075336	2
0	12955	4481.486341872081	1
0	12962	4483.689583848256	2
0	12963	4485.200797368461	1
0	12969	4487.58317879401	2
0	12973	4489.450084052887	3
0	12974	4489.778388464058	2
0	12980	4490.164235167925	3
0	12982	4490.17139309033	4
0	12983	4491.384899334096	3
0	12991	4492.699302128907	4
0	12992	4493.544784412113	3
0	12997	4493.68693852896	2
0	13004	4497.391275671915	3
0	13005	4497.851571073027	2
0	13010	4498.692555696614	1
0	13019	4502.168371584273	2
0	13020	4503.281209067439	1
0	13026	4503.323097973032	2
0	13029	4506.202119483591	3
0	13031	4507.06161739167	4
0	13032	4507.52526316032	3
0	13041	4508.733918463513	4
0	13046	4515.259864761721	3
0	13052	4515.720534465942	2
0	13058	4515.874242388083	3
0	13065	4516.982315828553	4
0	13066	4517.551575575621	3
0	13071	4517.645154659905	2
0	13078	4518.261186423312	3
0	13079	4518.99820345791	2
0	13085	4519.240505510981	3
0	13088	4521.473332127066	4
0	13089	4521.66966921151	3
0	13096	4522.993211161792	2
0	13102	4523.175152376939	3
0	13103	4523.852511814638	2
0	13108	4524.364824634553	1
0	13113	4524.475175679347	0
0	13134	4531.910842076121	1
0	13135	4532.888070945081	0
0	13141	4533.098032223165	1
0	13142	4534.422972469601	0
0	13165	4538.375465741005	1
0	13166	4542.387453326709	0
0	13172	4542.849998718015	1
0	13180	4544.37762647751	0
0	13186	4546.111652067043	1
0	13197	4551.286319951421	0
0	13203	4551.308328304516	1
0	13204	4551.392118259685	0
0	13223	4561.330621021362	1
0	13224	4562.450359559386	0
0	13244	4566.542141587894	1
0	13246	4566.639717973434	2
0	13252	4571.864754763331	3
0	13254	4574.869800549257	4
0	13256	4580.362929213902	5
0	13259	4582.852861108555	4
0	13265	4582.942744186097	5
0	13267	4583.928787991419	6
0	13273	4588.633390622185	7
0	13274	4590.219412632861	6
0	13280	4591.379425669514	5
0	13287	4592.759333443824	4
0	13293	4594.30613251862	3
0	13298	4594.911547702086	2
0	13303	4595.676259103882	1
0	13311	4596.460995613997	2
0	13312	4597.592061327006	1
0	13318	4600.449127681312	2
0	13320	4601.358972683234	3
0	13324	4604.183986722425	2
0	13329	4604.748262488206	1
0	13339	4608.094339348721	2
0	13344	4612.016507487299	3
0	13345	4612.272427519941	2
0	13351	4614.008252908055	1
0	13358	4615.168609208127	2
0	13359	4616.492757445056	1
0	13365	4616.671632175598	2
0	13366	4618.114520073586	1
0	13374	4619.390100668862	2
0	13375	4625.598049320683	1
0	13381	4625.876073952909	2
0	13384	4627.465312480918	1
0	13389	4627.901412173092	0
0	13410	4632.393342107796	1
0	13413	4634.132888051196	2
0	13414	4636.833012324556	1
0	13420	4636.84735723546	2
0	13424	4643.90258855376	1
0	13431	4645.859594591354	0
0	13443	4652.114555958037	1
0	13445	4653.872711322265	2
0	13448	4655.052609276979	1
0	13455	4660.805171746374	2
0	13456	4661.158235221217	1
0	13462	4664.689547226968	0
0	13481	4667.759530807615	1
0	13483	4668.478703981744	0
0	13497	4670.920003104048	1
0	13500	4675.295868963817	0
0	13529	4688.036583619706	1
0	13533	4689.550927709243	2
0	13538	4695.460939836076	1
0	13543	4695.889423770318	0
0	13549	4696.861261229407	1
0	13554	4699.661152067243	2
0	13555	4699.985614124699	1
0	13563	4701.316715252562	2
0	13566	4703.103121941506	1
0	13573	4704.441546128436	0
0	13580	4709.927452246941	1
0	13581	4710.131413748465	0
0	13588	4712.099012524407	1
0	13598	4719.222496926841	2
0	13599	4719.405832461922	1
0	13606	4719.938382956675	0
0	13626	4724.25608462779	1
0	13627	4725.549994076294	0
0	13633	4725.740918278687	1
0	13634	4726.340421733734	0
0	13642	4727.587156130164	1
0	13643	4728.094128123049	0
0	13663	4730.005258018665	1
0	13670	4731.917040053102	2
0	13671	4732.66058274507	1
0	13678	4735.9195764307	2
0	13679	4736.019064571101	1
0	13688	4740.060108488507	2
0	13689	4741.673853944754	1
0	13694	4743.061155672717	0
0	13706	4744.289527994875	1
0	13707	4745.27798233562	0
0	13715	4747.608459534107	1
0	13717	4747.800197578006	2
0	13720	4748.972854524665	1
0	13726	4750.000461520006	0
0	13742	4757.129959166278	1
0	13743	4758.143550740193	0
0	13749	4758.677699084943	1
0	13750	4759.027319501758	0
0	13761	4763.589072774587	1
0	13771	4768.60724922986	0
0	13777	4768.784711188296	1
0	13778	4769.235523345156	0
0	13794	4775.767500401277	1
0	13795	4776.672044499467	0
0	13802	4778.944633371419	1
0	13804	4778.983006809969	2
0	13806	4781.585433855444	3
0	13807	4783.273005411316	2
0	13812	4784.38713115355	1
0	13817	4784.583401000607	0
0	13838	4789.149260018651	1
0	13840	4789.255808963029	2
0	13842	4789.311102533432	3
0	13844	4792.617830256396	4
0	13846	4793.271706386067	5
0	13848	4793.477414849338	6
0	13852	4795.176599007659	5
0	13861	4796.813040455448	4
0	13866	4797.565284122699	3
0	13871	4797.978985277331	2
0	13877	4799.598202354211	3
0	13880	4799.749275819979	2
0	13891	4803.535483702991	1
0	13898	4805.331936137606	2
0	13900	4807.175897940743	3
0	13902	4808.02225242422	4
0	13906	4814.889632017316	5
0	13907	4816.999229380165	4
0	13913	4817.027955506504	5
0	13914	4817.339314962495	4
0	13921	4823.405103943063	3
0	13927	4824.945176249211	2
0	13933	4826.274219632006	1
0	13938	4826.62373361626	0
0	13951	4831.062398417493	1
0	13954	4836.990469349702	0
0	13979	4842.624795898149	1
0	13981	4844.377538747858	2
0	13983	4845.051701651921	3
0	13986	4845.802747614012	2
0	13991	4846.670155323933	1
0	13998	4848.337527706344	2
0	14000	4849.410108261262	1
0	14006	4849.619586499861	2
0	14008	4850.288552324867	3
0	14011	4853.085474529597	4
0	14013	4853.721427823111	5
0	14014	4855.026187661118	4
0	14019	4855.259671341335	3
0	14025	4856.116520798645	2
0	14031	4856.386258682229	3
0	14036	4858.341090117662	2
0	14043	4858.805989893963	3
0	14047	4861.5349373234	2
0	14053	4861.682284666585	3
0	14054	4861.764101679408	2
0	14062	4862.678400568463	3
0	14063	4863.334601755294	2
0	14069	4865.162667019255	3
0	14070	4865.555896485009	2
0	14079	4867.427916814181	3
0	14083	4871.272587759242	2
0	14091	4872.653848883061	1
0	14098	4876.05839081671	0
0	14110	4877.960658128169	1
0	14113	4878.372897402958	2
0	14114	4878.511067355219	1
0	14120	4878.81402941248	0
0	14126	4879.244600078722	1
0	14129	4881.415421037419	2
0	14131	4881.47435305312	3
0	14133	4881.781815763743	4
0	14136	4887.0475950114	3
0	14142	4887.368123181482	4
0	14143	4887.569221651654	3
0	14152	4889.610659053607	2
0	14157	4890.266624895222	1
0	14165	4890.855841661109	0
0	14172	4891.36663610837	1
0	14175	4892.413531644285	2
0	14177	4892.479767691438	3
0	14178	4892.73078317963	2
0	14185	4895.935399602505	1
0	14190	4896.255523902978	0
0	14203	4899.329405305851	1
0	14205	4899.644577913501	2
0	14207	4901.082817106852	3
0	14208	4902.816102820727	2
0	14215	4903.065538303233	1
0	14222	4903.900483286888	2
0	14224	4906.929913682914	1
0	14230	4907.677851267366	0
0	14236	4908.327898421111	1
0	14240	4910.432770638066	2
0	14241	4911.079114782475	1
0	14246	4912.752155141406	0
0	14281	4922.183866073958	1
0	14284	4922.628915678773	0
0	14290	4923.099989450281	1
0	14291	4923.222254013687	0
0	14301	4926.351624542986	1
0	14302	4926.604694118518	0
0	14314	4929.455133416288	1
0	14316	4929.527969489754	2
0	14318	4930.13516023414	3
0	14319	4931.57124756329	2
0	14327	4932.292610923204	3
0	14330	4935.885511537384	4
0	14332	4938.924163355753	5
0	14333	4942.325904190146	4
0	14340	4942.631903430928	5
0	14345	4945.590103640591	4
0	14351	4945.683282521155	5
0	14353	4946.708677374905	4
0	14360	4947.884794340896	5
0	14361	4948.032286030508	4
0	14367	4948.765483990713	3
0	14373	4949.794903225163	4
0	14375	4949.846865845701	5
0	14379	4951.355995201076	6
0	14380	4953.311046784602	5
0	14386	4954.809572374959	4
0	14392	4955.766026349196	3
0	14400	4957.189202633776	2
0	14406	4958.225607504822	1
0	14414	4959.041977438682	0
0	14451	4966.669401735902	1
0	14453	4967.03934942064	2
0	14457	4971.490507657705	1
0	14465	4975.599772008334	0
0	14504	4999.05281462571	1
0	14505	4999.494448369151	0
0	14524	5003.037832006499	1
0	14529	5004.24125217904	0
0	14552	5010.793783048113	1
0	14557	5013.536294591271	0
0	14564	5017.072798949553	1
0	14565	5019.72586054077	0
0	14573	5023.358253939619	1
0	14574	5024.496749660902	0
0	14594	5033.111482877871	1
0	14597	5035.321111142111	0
0	14618	5042.590946592259	1
0	14620	5043.146767470983	2
0	14623	5043.752819104968	1
0	14629	5043.758505619845	2
0	14632	5044.352860548305	3
0	14634	5047.233195772563	2
0	14639	5047.732314839628	1
0	14645	5049.294691272032	0
0	14653	5052.248205742799	1
0	14655	5053.072857963023	0
0	14695	5065.349416784526	1
0	14696	5067.414421119282	0
0	14702	5067.52452500201	1
0	14704	5069.236965930552	0
0	14710	5069.592082340595	1
0	14716	5070.852241238206	0
0	14743	5075.44597024509	1
0	14746	5076.859761944224	0
0	14755	5078.583424834536	1
0	14757	5078.993087925158	2
0	14761	5080.922730768642	3
0	14763	5081.575840056491	4
0	14767	5083.845238465729	5
0	14772	5087.637333925534	4
0	14777	5087.968701458012	3
0	14783	5088.551979544738	2
0	14789	5088.589608609531	3
0	14792	5090.245473915643	2
0	14797	5092.635048868965	1
0	14803	5093.189562776144	2
0	14806	5094.889730497048	3
0	14809	5096.032250154154	2
0	14815	5097.743906983957	3
0	14817	5098.054356611965	4
0	14820	5099.43040209877	3
0	14825	5099.560671361005	2
0	14831	5101.806323811099	1
0	14836	5101.89023743678	0
0	14855	5110.206408039913	1
0	14856	5110.309109330646	0
0	14870	5118.15093417643	1
0	14871	5119.329201918302	0
0	14882	5123.002176857324	1
0	14884	5123.325633615292	2
0	14887	5124.574967848117	1
0	14893	5125.619459681439	0
0	14918	5132.350155748054	1
0	14919	5132.842482433668	0
0	14934	5139.194381016394	1
0	14936	5140.087723859905	2
0	14941	5141.339494578514	1
0	14950	5142.242206694292	0
0	14968	5146.510292335807	1
0	14969	5147.120350984588	0
0	14975	5147.581073887183	1
0	14977	5148.052673620742	0
0	14983	5148.374942444164	1
0	14985	5148.565377746234	2
0	14993	5156.489219849872	1
0	14999	5157.587997564384	2
0	15001	5157.618175917279	3
0	15002	5157.93239497304	2
0	15008	5157.946829926402	3
0	15010	5158.630914594134	2
0	15017	5159.814735020139	1
0	15023	5160.152106578193	2
0	15024	5160.218908160044	1
0	15030	5161.158407925352	0
0	15036	5162.008987365685	1
0	15038	5163.492599655879	0
0	15058	5168.583947555422	1
0	15060	5170.481162974394	2
0	15064	5171.326252531821	3
0	15068	5172.910073312182	2
0	15075	5173.033942633889	1
0	15082	5175.084489734933	0
0	15088	5176.161960455657	1
0	15091	5179.50207792453	2
0	15093	5183.094430748707	1
0	15101	5184.446231472932	2
0	15102	5184.679321145177	1
0	15109	5185.66145749134	0
0	15126	5189.251571316272	1
0	15128	5189.858280905628	2
0	15129	5190.598089091331	1
0	15135	5194.940495847629	0
0	15156	5200.761372224606	1
0	15158	5201.371446578718	2
0	15159	5202.255741955655	1
0	15166	5203.648537958718	2
0	15169	5205.541443205017	1
0	15174	5205.673240225211	0
0	15218	5224.302121414153	1
0	15223	5226.14805524734	0
0	15234	5230.34379235427	1
0	15237	5231.0924915157	2
0	15239	5231.647962399812	3
0	15240	5233.210553675132	2
0	15245	5233.364840965292	1
0	15251	5233.841159764556	2
0	15255	5237.051893192343	1
0	15264	5241.098221672889	2
0	15266	5242.058841420837	3
0	15270	5243.311324859203	2
0	15276	5243.390097490659	3
0	15281	5247.77007472143	4
0	15283	5248.299781947017	5
0	15287	5249.43531229841	6
0	15288	5254.160209513423	5
0	15298	5258.074465537242	4
0	15304	5258.519433227148	5
0	15306	5258.598071318042	6
0	15307	5258.637678349697	5
0	15314	5259.166313237529	4
0	15321	5261.392369411737	5
0	15323	5261.728086745303	6
0	15324	5262.068089264663	5
0	15328	5265.500081132126	6
0	15336	5268.14718589527	7
0	15339	5269.343828962141	8
0	15340	5271.93484471109	7
0	15348	5273.684623273806	6
0	15353	5278.644408694072	5
0	15359	5278.708392477792	6
0	15363	5281.275759083642	7
0	15366	5282.110745379022	8
0	15367	5282.362342194512	7
0	15375	5284.389969364457	8
0	15376	5285.740153365206	7
0	15383	5286.756221990604	6
0	15389	5288.816974599379	7
0	15390	5288.879046869108	6
0	15395	5293.179849810358	5
0	15403	5296.695013284818	4
0	15408	5297.373500625192	3
0	15412	5299.196747738832	4
0	15415	5299.962229260631	3
0	15425	5302.843261280034	2
0	15430	5303.111272945497	1
0	15438	5307.600933935986	0
0	15454	5308.453227563257	1
0	15455	5308.553005261166	0
0	15471	5311.132822190766	1
0	15476	5311.78629875449	0
0	15491	5313.885406471592	1
0	15492	5314.329674543812	0
0	15498	5314.916057788099	1
0	15500	5315.23972137534	0
0	15509	5316.105080975215	1
0	15510	5316.507933155549	0
0	15536	5326.242783412957	1
0	15539	5328.72366603226	0
0	15556	5338.295529816081	1
0	15560	5339.828916937963	2
0	15561	5341.300414534238	1
0	15567	5341.962682211231	2
0	15569	5345.577657393433	1
0	15574	5346.330266950069	0
0	15580	5346.631731294706	1
0	15588	5350.569183940128	0
0	15609	5354.32461640824	1
0	15614	5357.417481216158	0
0	15644	5366.645928647511	1
0	15649	5369.260057033196	0
0	15661	5371.515969401502	1
0	15667	5374.473535152554	2
0	15668	5376.974636936966	1
0	15674	5377.730818664209	2
0	15677	5382.26590413658	3
0	15679	5382.305175433975	4
0	15681	5382.841553019621	5
0	15682	5382.98368514881	4
0	15687	5383.213705573367	3
0	15698	5387.037851500719	2
0	15703	5387.625922949361	1
0	15708	5387.810669600545	0
0	15720	5390.904713674207	1
0	15723	5392.536919325965	0
0	15737	5397.012854394273	1
0	15741	5399.277485407269	0
0	15747	5399.777766470988	1
0	15748	5400.055138465969	0
0	15758	5402.348273825852	1
0	15760	5403.432162248743	2
0	15763	5403.950968059525	1
0	15769	5404.449072114708	2
0	15774	5405.72858900605	1
0	15779	5406.531931698981	0
0	15785	5406.74572273784	1
0	15786	5408.016003925196	0
0	15804	5412.764958334959	1
0	15808	5415.807705360725	0
0	15815	5416.302465430371	1
0	15816	5417.377676094115	0
0	15828	5418.704317338725	1
0	15829	5420.35773837552	0
0	15842	5422.115350343595	1
0	15843	5422.531504423999	0
0	15862	5429.425691248242	1
0	15866	5431.339180766451	0
0	15872	5431.83511793038	1
0	15873	5432.439133553039	0
0	15880	5433.645254688879	1
0	15882	5434.044237779032	2
0	15885	5437.84561467717	1
0	15890	5438.113615618685	0
0	15918	5448.585360698979	1
0	15922	5450.464799312641	2
0	15923	5450.796162800926	1
0	15929	5451.263539293361	2
0	15940	5457.506059752517	1
0	15946	5459.789264238772	0
0	15961	5461.46661419003	1
0	15964	5463.421902338394	0
0	15970	5465.989911993148	1
0	15972	5465.997760496471	2
0	15975	5467.382352936962	1
0	15980	5468.971294753285	0
0	15989	5471.03762653396	1
0	15993	5472.586313917975	2
0	15999	5473.448887875989	1
0	16008	5474.752792416585	2
0	16009	5475.127044653516	1
0	16020	5479.818654545306	0
0	16042	5486.401536162718	1
0	16047	5487.927649579184	2
0	16050	5491.414001281568	1
0	16057	5494.828481931981	2
0	16058	5495.52284096194	1
0	16064	5496.637302456613	2
0	16065	5497.478019731604	1
0	16071	5499.100887449237	2
0	16072	5499.483239184183	1
0	16080	5501.49236961558	0
0	16123	5516.959806733793	1
0	16125	5517.889857747295	2
0	16129	5518.884598681981	3
0	16131	5520.053575018322	4
0	16133	5520.072732837131	5
0	16135	5521.005781122605	6
0	16136	5521.022772742547	5
0	16141	5521.416445386118	4
0	16146	5521.706502309725	3
0	16157	5524.227726124907	4
0	16159	5527.142024377269	3
0	16165	5528.964593596721	2
0	16170	5529.797464522362	1
0	16178	5532.473170354173	2
0	16181	5532.971249033427	3
0	16183	5533.228811737588	4
0	16184	5533.523517215176	3
0	16190	5533.855695879874	4
0	16193	5535.702543559955	3
0	16198	5537.998380548386	2
0	16204	5542.093369454152	1
0	16212	5543.762095375222	2
0	16219	5547.130029737858	1
0	16226	5551.915422012926	2
0	16227	5552.249072786354	1
0	16234	5552.625666313308	2
0	16236	5553.294443713384	1
0	16241	5554.120253109689	0
0	16248	5555.142582067855	1
0	16252	5556.723731845096	2
0	16253	5556.975466743235	1
0	16259	5557.978661603404	2
0	16260	5558.482116276802	1
0	16265	5558.966065520646	0
0	16287	5562.344381969713	1
0	16288	5562.487523108258	0
0	16310	5568.325110160311	1
0	16312	5569.389538893015	2
0	16317	5570.506969944975	1
0	16322	5570.636407990481	0
0	16344	5576.526391675199	1
0	16347	5576.985861037292	0
0	16362	5581.885593714104	1
0	16364	5582.635352325232	2
0	16368	5583.021887173953	3
0	16370	5584.144980875286	4
0	16372	5584.616043907156	5
0	16373	5586.55961624873	4
0	16380	5588.542532415106	3
0	16385	5588.883467466615	2
0	16391	5590.330389406477	3
0	16394	5592.424268857495	4
0	16400	5598.188603014438	3
0	16405	5598.783465302857	2
0	16410	5599.730626549444	1
0	16415	5600.034506235529	0
0	16433	5601.710619777175	1
0	16434	5603.200075282712	0
0	16445	5604.861865191684	1
0	16450	5607.762507655288	0
0	16484	5615.269127148862	1
0	16487	5616.212024940524	0
0	16503	5621.869267117575	1
0	16504	5623.379662448448	0
0	16511	5631.100474083726	1
0	16514	5633.332748082544	0
0	16520	5634.451984412015	1
0	16522	5635.559244957349	2
0	16526	5639.4644469029	1
0	16532	5639.559834636901	2
0	16533	5639.731180048872	1
0	16538	5640.434480198111	0
0	16544	5641.052272888703	1
0	16546	5641.712791460019	2
0	16550	5646.789486459024	1
0	16556	5646.886842956058	2
0	16565	5649.969022421843	1
0	16572	5650.46714119506	0
0	16593	5653.260149478406	1
0	16595	5653.567688171832	2
0	16600	5654.326269117741	1
0	16606	5655.155653125851	0
0	16626	5662.153532563163	1
0	16629	5663.163754647674	0
0	16636	5666.578754462285	1
0	16637	5668.337488456483	0
0	16652	5675.071653695955	1
0	16654	5677.324923471358	2
0	16660	5681.478040074724	3
0	16661	5686.020156869601	2
0	16667	5686.448812664028	3
0	16668	5687.296885733815	2
0	16675	5688.11171348774	3
0	16676	5688.981642481814	2
0	16685	5689.710826233833	3
0	16690	5694.36220651109	2
0	16697	5695.901746988567	3
0	16698	5698.833216299917	2
0	16704	5699.973266700199	3
0	16705	5701.5714245383	2
0	16710	5704.217116697003	1
0	16716	5705.313131682626	2
0	16717	5705.877431844849	1
0	16722	5706.499941883873	0
0	16728	5707.370420200772	1
0	16730	5708.256955534547	0
0	16754	5712.476814373431	1
0	16758	5713.367250815717	2
0	16761	5714.40942068505	1
0	16766	5714.89980912993	0
0	16783	5722.302135290315	1
0	16785	5723.421580128133	2
0	16798	5725.769248017739	3
0	16800	5728.167996147069	4
0	16801	5729.597590402305	3
0	16807	5730.158260108383	4
0	16810	5733.087559048217	5
0	16811	5733.621686916774	4
0	16818	5734.608567689671	5
0	16819	5736.988032163588	4
0	16826	5737.288685131801	3
0	16831	5737.432307006389	2
0	16840	5741.487404876881	1
0	16845	5741.965165946198	0
0	16889	5759.196125273526	1
0	16891	5763.343514295411	2
0	16897	5767.822648251929	3
0	16899	5770.299974051677	4
0	16902	5772.370536223101	3
0	16910	5772.938229504738	4
0	16914	5774.893785252674	3
0	16919	5776.086571533515	2
0	16929	5779.242757376776	3
0	16930	5779.493376524512	2
0	16935	5780.471168934232	1
0	16943	5782.381882810685	2
0	16945	5782.56066671677	3
0	16946	5783.356232122915	2
0	16952	5783.625365187836	3
[...]
5	79106	26677.027670679892	7772.837246165
5	79127	26684.144008757062	7775.6887471618
5	79140	26690.041390401916	7781.2107084249
5	79166	26697.938614666739	7787.481947186
5	79171	26699.067897746571	7784.1119263218
5	79178	26702.706182003567	7784.226867175
5	79195	26710.983208248539	7773.7668484976
5	79272	26734.167351946599	7788.1800193208
5	79283	26740.178531391973	7793.9450030429
5	79289	26743.95049678554	7796.0607758701
5	79294	26749.312092334489	7800.1495922307
5	79302	26754.181240990353	7798.4361263657
5	79315	26756.144927824968	7798.2055487478
5	79334	26760.15066425397	7801.0842038582
5	79342	26766.38397038326	7797.9123727557
5	79359	26769.879937044379	7798.6609246143
5	79380	26775.89585532904	7803.5414295428
5	79402	26782.316218659176	7800.4813437761
5	79424	26787.562255894291	7800.1229832515
5	79432	26790.255644549806	7799.3492638315
5	79441	26796.96168119251	7789.0422012485
5	79469	26804.666287554737	7790.788364799
5	79476	26807.126302074139	7784.3864048675
5	79486	26807.532350479498	7779.5339930814
5	79494	26809.520165724294	7774.4508636365
5	79505	26812.768187883153	7767.0520771906
5	79512	26821.078938709968	7760.0855012482
5	79530	26827.932201575353	7758.0639030728
5	79541	26831.159266765098	7757.118553291
5	79546	26833.408697330611	7757.8850117482
5	79557	26837.611439151266	7761.5417854662
5	79581	26847.734515135524	7770.3947380985
5	79659	26877.267115043297	7797.7721824297
5	79667	26877.768242574621	7785.5562577261
5	79681	26883.080240477802	7746.5134110782
5	79691	26883.640644282363	7744.348683416
5	79698	26886.92404105355	7743.3333701454
5	79703	26889.994112315534	7744.372569807
5	79710	26892.289701400318	7742.1431912275
5	79715	26892.775472615285	7739.3477105418
5	79726	26897.904149682148	7741.1914086322
5	79736	26904.166534287539	7739.9939615706
5	79755	26911.893199157996	7743.5530752462
5	79761	26915.841784500857	7745.7295353394
5	79766	26916.446147718958	7742.9907075779
5	79771	26917.733422434835	7735.8792370874
5	79778	26920.121961196054	7734.9960191391
5	79783	26928.204730827962	7740.9459814962
5	79799	26930.833465606255	7743.3953116408
5	79889	26965.206033777634	7777.6103564147
5	79896	26966.967486886547	7766.0147813765
5	79903	26971.722328984198	7767.056095099
5	79917	26976.326408508969	7767.4506454211
5	80130	27045.725089116846	7833.8615940353
5	80149	27050.539901000982	7826.9434713357
5	80194	27058.39778700736	7830.7417275266
5	80238	27070.000964471627	7835.6745490203
5	80243	27070.398570541468	7833.8804614145
5	80256	27071.746120019304	7826.4604755149
5	80494	27145.553439543419	7894.100266103
5	80499	27146.201598809083	7889.5556970668
5	80504	27146.580116514083	7873.1998114933
5	80515	27151.109754793217	7875.8173484374
5	80520	27152.99095964741	7875.573511097
5	80525	27156.986287692489	7877.7102848329
5	80532	27161.099140002132	7873.430673073
5	80537	27164.040091170621	7874.7474568112
5	80548	27165.333110626825	7874.8674326245
5	80564	27167.986320507017	7871.5669747263
5	80575	27168.742511554545	7870.1388255771
5	80606	27178.670599006354	7877.8515314412
5	80640	27186.304868793956	7881.8651478753
5	80649	27189.568319770887	7880.8879873193
5	80661	27190.866843834678	7871.9454745874
5	80675	27199.26195899288	7873.505097323
5	80710	27208.978801297388	7882.2701618229
5	80726	27217.235936474818	7887.5077373021
5	80759	27231.562280517726	7896.4679006618
5	80776	27236.412054149615	7896.4028842897
5	80783	27237.812929627219	7886.8281221286
5	80794	27240.635117178555	7887.5343185514
5	80808	27247.351915581574	7884.395200253
5	80889	27271.87931034384	7888.8089341555
5	80894	27274.595204105247	7888.6447560852
5	80899	27275.646451056008	7886.6678036536
5	80908	27280.373271849089	7890.931962979
5	80923	27284.422156817072	7888.1044748498
5	80935	27286.53276020564	7882.9242447559
5	80950	27290.425846284295	7880.5331593232
5	80980	27298.057875020395	7874.8284254634
5	80986	27300.016608544738	7874.2082851669
5	80993	27303.942663552614	7873.8714013037
5	80998	27304.779022748184	7869.6500675811
5	81007	27307.301694936527	7869.0574527334
5	81023	27310.019946858527	7857.3315303643
5	81034	27312.934430845048	7847.5092744617
5	81048	27319.227646843403	7849.7133281457
5	81060	27323.460516658695	7841.3484325158
5	81065	27323.590755939553	7834.0627551241
5	81078	27333.840181834412	7836.5571137144
5	81097	27339.473595614721	7832.2769050585
5	81110	27348.695109663759	7835.1122166236
5	81170	27369.361717746382	7850.5898253796
5	81179	27374.706371590243	7851.3937811785
5	81241	27390.417968657159	7865.948994364
5	81246	27393.680835489393	7861.6920764364
5	81255	27395.797511932071	7860.5117118747
5	81278	27408.551920318211	7870.2598874261
5	81471	27465.57404029169	7925.4887823214
5	81482	27467.538434664629	7924.8222201878
5	81493	27476.804427110986	7912.8283664764
5	81500	27477.484084998909	7912.4556209634
5	81513	27480.298376227573	7914.0441358578
5	81526	27483.505309628685	7914.1102336263
5	81539	27486.775463173507	7902.165083012
5	81552	27490.946461519671	7904.5291845341
5	81567	27504.410518255773	7917.9892256126
5	81590	27508.602340131984	7921.242030941
5	81600	27514.473668011769	7904.9433707473
5	81619	27516.869313469954	7905.2554710554
5	81630	27520.219773598532	7904.0253068633
5	81646	27526.994425810973	7909.335227009
5	81651	27529.952005630852	7911.0865368301
5	81656	27531.679992202143	7906.4132730204
5	81661	27537.773725498987	7910.398052797
5	81666	27539.178871728402	7902.1015402477
5	81675	27543.601786572761	7900.6153942373
5	81692	27548.210783001103	7900.985649212
5	81700	27556.177792594604	7907.8431644058
5	81712	27562.253615243758	7904.841676445
5	81720	27567.490900615651	7904.8438956487
5	81732	27571.142904560954	7901.1989770751
5	81741	27573.91134968364	7903.2795309065
5	81751	27575.633986004137	7892.163635797
5	81773	27578.616449751752	7870.5541226423
5	81789	27585.934172437311	7859.4551995972
5	81796	27587.61111129491	7849.612897757
5	81801	27590.058987451522	7850.6528604129
5	81811	27592.693130894183	7850.2933487471
5	81824	27593.74096961511	7843.7481193176
5	81897	27620.443441285409	7864.0196448946
5	81909	27624.35211092923	7863.7455438531
5	81944	27635.895183677877	7862.3730797523
5	81950	27637.7693464373	7862.2299577761
5	81955	27639.706223436512	7862.6063150053
5	81962	27642.555364828165	7862.6240636186
5	82056	27669.363732504217	7887.4847254261
5	82071	27673.836674538141	7888.047659021
5	82076	27675.474052182083	7849.8029860704
5	82081	27676.855709417007	7844.3993067256
5	82088	27679.552433216887	7843.2741265264
5	82101	27683.48383121145	7842.9156954073
5	82116	27687.373874910373	7844.9303881112
5	82168	27704.183399808125	7851.6556339428
5	82176	27706.754309441846	7852.6010067855
5	82187	27712.945690811242	7857.6325137583
5	82198	27717.797844708128	7860.6170501655
5	82211	27719.645431160094	7854.1540989396
5	82222	27721.795946388954	7842.3603860362
5	82243	27728.906387896019	7827.6415444199
5	82256	27734.885947369113	7823.8444930499
5	82291	27750.124214317649	7822.1184222014
5	82305	27754.958239271978	7821.6013574713
5	82335	27766.462736074195	7821.4924019333
5	82390	27785.663816984105	7830.8494688948
5	82418	27792.952072477587	7836.2997080028
5	82468	27802.566174025818	7835.3503687998
5	82473	27802.845964864827	7819.021528207
5	82479	27804.477990889461	7820.5210902174
5	82484	27805.617299109675	7821.4226689278
5	82489	27806.60880479937	7810.1306747589
5	82499	27814.305962185101	7811.2915617968
5	82535	27834.344272927618	7829.8275675018
5	82544	27838.865566094478	7833.0991624158
5	82556	27840.132172000614	7833.0847527668
5	82561	27842.152060915603	7815.3793005572
5	82568	27845.96754141137	7818.2791767025
5	82592	27852.156301980494	7808.4767988069
5	82613	27870.376270054358	7823.0775825176
5	82627	27872.864465010154	7824.73070989
5	82641	27878.274526258386	7829.083406982
5	82646	27879.367322236434	7822.2185925657
5	82651	27881.022992336198	7822.0607660553
5	82658	27882.927950604674	7814.0860658412
5	82678	27889.503694841688	7819.1829010725
5	82689	27890.174456332541	7817.9400869264
5	82694	27895.466066613049	7823.0148590222
5	82699	27898.307487428865	7812.4945978813
5	82706	27900.094449026581	7803.4597202806
5	82718	27904.17921529147	7807.2174455823
5	82725	27905.129529206408	7805.5704351383
5	82735	27906.281216477597	7805.9352384985
5	82747	27912.817124424037	7806.4358950125
5	82765	27915.087209922417	7803.5356072995
5	82772	27919.558216011492	7806.4240899752
5	82888	27946.17089558446	7829.2782343841
5	82893	27949.272659221895	7831.2352141356
5	82898	27949.343013390312	7824.8636703265
5	82903	27950.758438596719	7820.3356444473
5	82908	27952.226088283904	7809.7442333437
5	82923	27959.361966510401	7811.3446574287
5	82960	27972.083497639182	7810.4973250255
5	82972	27975.704911578005	7806.3125667212
5	82977	27978.86162752475	7805.6485786628
5	82992	27990.049630099656	7809.8336573128
5	83036	28002.374146115957	7818.6023187058
5	83046	28009.682760423094	7824.2188833502
5	83058	28011.562201749308	7792.735622583
5	83071	28013.595166384048	7784.3717905773
5	83086	28016.855957762132	7757.9661975519
5	83108	28031.738718822088	7772.009975086
5	83125	28039.373887844016	7771.4634954084
5	83162	28045.00275386881	7768.9228636013
5	83180	28050.336653903369	7758.853932795
5	83196	28058.179612817841	7763.1062510282
5	83234	28068.689832913051	7772.1211587735
5	83241	28070.263898285881	7772.7912028548
5	83248	28071.372034567353	7766.5609015555
5	83257	28080.187627452028	7771.7225898525
5	83268	28088.226981978506	7762.1298056975
5	83325	28103.268373431819	7774.9666137313
5	83335	28104.269972814292	7769.3020456053
5	83340	28105.73167742445	7759.8339359131
5	83350	28108.20401687661	7759.6370959384
5	83361	28117.223634811419	7768.2090081754
5	83407	28129.008834009486	7768.6915581836
5	83412	28131.881660845174	7771.3309675439
5	83427	28146.612545556125	7782.8828981102
5	83449	28147.461397122215	7771.9502747547
5	83469	28155.197180309777	7779.4188557152
5	83485	28158.6855410593	7767.2678745579
5	83606	28199.499107224244	7807.3567199293
5	83668	28214.734202271994	7818.5434849114
5	83690	28220.831002130472	7823.2869788429
5	83771	28250.496196689762	7852.3678201347
5	83795	28256.201639505607	7848.7083594427
5	83811	28262.1502754172	7854.3512527902
5	83824	28264.622542140752	7854.5968041379
5	83835	28267.481030438305	7852.2687640818
5	83856	28276.036209490263	7853.7756204746
5	83904	28291.655989954966	7865.798634659
5	83919	28294.170606999111	7859.3214940007
5	83927	28295.898997612438	7860.8615789922
5	83932	28296.205640329593	7852.6582007614
5	83939	28298.464815915033	7846.2970059285
5	83946	28299.317968792818	7842.9466923233
5	83980	28309.267149899782	7851.1662280155
5	83991	28312.811439692861	7852.0656390181
5	84149	28352.295381208855	7888.3921470656
5	84156	28354.660903811815	7877.1262045781
5	84168	28358.909231808747	7881.2399293086
5	84227	28379.389989866397	7901.4565796841
5	84245	28389.524633081077	7911.2904340906
5	84320	28414.692647071212	7927.8402607827
5	84329	28423.173246802309	7934.7736483942
5	84341	28427.244496233851	7931.8505468956
5	84348	28430.242441174751	7930.0763048772
5	84358	28435.87482515362	7922.6286706625
5	84371	28442.307676373815	7927.3980070632
5	84417	28452.953198314878	7935.9060684862
5	84429	28456.42586281214	7934.013024731
5	84438	28461.280897841555	7931.0446828382
5	84452	28464.791302914178	7931.7702168053
5	84464	28469.50543955795	7930.2482912921
5	84495	28475.155800195627	7932.4607729632
5	84502	28476.510736449593	7924.6659322391
5	84511	28478.018886191574	7923.5251963674
5	84546	28493.436819847279	7933.9497925204
5	84557	28494.207969629722	7933.2062569406
5	84562	28496.670930167071	7935.3023523877
5	84571	28500.723253953847	7938.0249098649
5	84587	28511.346612435478	7945.5030207009
5	84598	28515.496350212039	7936.3912409596
5	84611	28521.199500817947	7938.7999405725
5	84688	28541.299869655161	7955.5604664654
5	84693	28541.683613351431	7951.3126111556
5	84704	28546.457933557589	7949.104795744
5	84718	28549.080345932506	7950.7953663735
5	84725	28552.706930909007	7949.1888473935
5	84752	28557.711557869618	7948.4482645449
5	84808	28578.998617677689	7969.321025025
5	84818	28580.90997126209	7971.1549103182
5	84831	28584.29652407206	7973.5579601015
5	84859	28594.465724752481	7981.984808286
5	84884	28605.268462329537	7988.6658288936
5	85029	28656.314988646171	8034.3901631522
5	85079	28667.95490157739	8028.5647307129
5	85092	28670.140361375221	8026.7605059912
5	85098	28671.05434031739	8023.0750752663
5	85107	28672.655976025435	8023.8439764266
5	85126	28679.598412811635	8022.1077009735
5	85153	28694.620168304381	8034.6341397278
5	85169	28696.717728809474	8022.6238830419
5	85178	28702.338389070519	8026.8640751956
5	85195	28704.499740826203	8021.8843358807
5	85201	28708.154260878601	8018.8721395445
5	85217	28710.993324109141	8009.3285121673
5	85342	28765.877130062188	8057.6561563008
5	85349	28767.830153439329	8057.5252171223
5	85390	28781.473068848906	8070.9776970546
5	85398	28782.538751653332	8067.8117212397
5	85463	28808.758544355256	8093.4481422228
5	85477	28813.493609830868	8095.3235564263
5	85488	28823.093334873137	8101.6697038128
5	85508	28832.432914957546	8107.8097839502
5	85515	28835.010724025979	8107.4000894373
5	85533	28842.391812438391	8109.0463873788
5	85574	28852.318863696471	8111.2476626661
5	85758	28896.444284534862	8149.6388953697
5	85823	28919.637543605845	8172.0776744098
5	85851	28934.80648464588	8175.3513389032
5	85865	28939.168134570315	8176.9070961255
5	85874	28946.581383807796	8184.0866054675
5	85896	28954.480399553223	8185.9373014764
5	85989	28989.031988256035	8213.555999073
5	85994	28989.983548636352	8198.4545936083
5	85999	28990.140906794782	8196.9828701607
5	86004	28992.095604719213	8197.5720360355
5	86015	28994.427154374972	8178.1027945154
5	86032	29003.692392335006	8176.3941755785
5	86047	29006.758864965478	8169.5894826172
5	86052	29008.24438411999	8157.6546188681
5	86060	29012.007389021848	8151.5547839216
5	86074	29012.726337982371	8151.424398493
5	86105	29022.544550236046	8146.6530793906
5	86114	29029.604791638689	8145.792305894
5	86177	29047.897853453321	8162.2761459633
5	86198	29054.672718609954	8165.7003995381
5	86205	29057.309526236423	8159.0279378858
5	86216	29060.485598359918	8161.0981118661
5	86221	29060.8444969764	8161.1882530905
5	86236	29067.382186194858	8150.379600382
5	86315	29088.408583212008	8171.1278168986
5	86322	29091.47758480432	8165.2045762694
5	86329	29094.063457318498	8159.7311907939
5	86348	29100.122426446587	8155.5467017003
5	86357	29101.297851965459	8155.7999142772
5	86368	29106.810400458346	8154.4855082401
5	86373	29107.677063739443	8150.9980682208
5	86384	29115.465752406431	8153.9948481656
5	86413	29127.588516251254	8157.8738146939
5	86423	29128.499192925288	8155.1201768219
5	86431	29137.384718925597	8161.0951074068
5	86445	29146.851343825982	8168.0584827099
5	86514	29165.265876866516	8152.6630768062
5	86521	29165.794179078616	8141.8521171333
5	86538	29169.398310368928	8141.0945921143
5	86562	29174.977460734088	8144.0150204922
5	86618	29187.664870776292	8156.0997805687
5	86625	29190.896028017916	8155.8298972226
5	86634	29192.755060736764	8157.0501848954
5	86664	29206.353689649565	8164.0062225574
5	86755	29232.344168365252	8189.8390437054
5	86760	29232.413354946832	8186.126335279
5	86769	29235.80544806862	8188.8421544542
5	86799	29245.931471992491	8197.1570417194
5	86925	29271.696565719933	8210.8179820669
5	86930	29271.719180900855	8203.1973998071
5	86938	29273.907248659213	8200.1086315162
5	86953	29279.790727161706	8204.6158590841
5	87055	29303.629040552169	8227.5394197647
5	87064	29308.157798853958	8231.5545752932
5	87073	29312.561415061914	8230.4216526091
5	87085	29317.769607984091	8232.3331893979
5	87093	29320.31955575052	8225.804225413
5	87111	29326.949999154514	8228.2916064226
5	87119	29333.116222508605	8230.2571885611
5	87131	29337.679899761748	8229.1299612329
5	87136	29339.806612493453	8230.5876104792
5	87143	29342.555992485935	8231.5960713462
5	87153	29344.772331309275	8228.0273546546
5	87163	29350.095058282103	8232.1021224352
5	87177	29355.530171783169	8235.5174433308
5	87184	29357.556669225839	8215.2662638438
5	87199	29365.4538466493	8222.6886841101
5	87210	29374.301521248881	8231.1417250715
5	87255	29386.35143496123	8229.2849350151
5	87269	29389.07790709512	8223.5139684644
5	87280	29392.234281819731	8224.4010002476
5	87339	29404.393520790041	8235.7884579988
5	87344	29405.142573780283	8232.2679143088
5	87353	29407.274655377522	8227.7793180157
5	87366	29413.093558189633	8228.5834137608
5	87371	29417.573948886393	8221.035947567
5	87378	29424.289854359832	8226.4121961537
5	87390	29428.927554355568	8226.2336644843
5	87401	29432.935700587886	8227.1134573665
5	87406	29432.964592129594	8211.6452281627
5	87420	29445.804733272869	8195.852463823
5	87437	29449.956175696016	8189.9897881696
5	87452	29452.909170621383	8192.9049931438
5	87471	29461.03532486246	8195.7088672829
5	87487	29463.150105337559	8188.9586137781
5	87494	29464.935039636878	8176.1621099186
5	87581	29495.666924359063	8205.474091252
5	87588	29497.743755257316	8201.7482798128
5	87593	29503.966413124169	8202.5656540684
5	87602	29508.021797676237	8204.2622501037
5	87651	29521.609336346053	8215.683639295
5	87656	29523.592142483044	8185.9128634355
5	87662	29525.193224063385	8161.0854296822
5	87670	29527.844013404016	8144.8325311941
5	87755	29560.867267012938	8177.8365170469
5	87768	29563.716227926998	8177.3061842551
5	87774	29564.613520019037	8176.2517655785
5	87779	29565.559332948658	8175.8780968639
5	87786	29569.024482706153	8174.2681084054
5	87795	29574.783894158856	8178.8143196902
5	87805	29577.14056962488	8175.6044819099
5	87822	29583.904705540067	8167.1475100336
5	87851	29593.425523333197	8167.1135815904
5	87869	29596.37220165345	8167.3224376566
5	87880	29603.75108892316	8171.8080578937
5	87887	29605.845418231189	8169.6779602624
5	87907	29608.880512381539	8161.6494621701
5	87921	29611.565290954297	8155.9407681515
5	87962	29627.008005593057	8157.4538500104
5	88031	29646.512341858345	8175.7597625183
5	88040	29651.176787953894	8173.4036395636
5	88054	29656.294610771164	8177.9295069086
5	88104	29677.407141495359	8191.496781317
5	88111	29680.539121327119	8190.7797789217
5	88118	29682.818637064451	8188.4562381569
5	88132	29691.704257027937	8193.9772754923
5	88147	29695.418287873487	8188.7530991684
5	88167	29702.336304170484	8194.115429643
5	88182	29706.099152656159	8197.8425483733
5	88195	29713.778911853274	8201.6358241151
5	88207	29716.29612343822	8201.5949413595
5	88226	29725.296655140802	8210.2480401723
5	88259	29732.048545323246	8208.4887031774
5	88319	29753.881357000792	8229.2039464496
5	88324	29755.191112329665	8221.0576236436
5	88331	29756.939299122613	8221.082044665
5	88352	29764.386921198978	8227.4933377369
5	88372	29766.035118970359	8227.432911414
5	88377	29768.055927377912	8226.5596544311
5	88387	29771.544798528175	8227.5042964225
5	88398	29775.587013647794	8230.4737094169
5	88407	29781.234342149947	8235.6364230287
5	88467	29799.657059590601	8248.4554788428
5	88474	29801.029629752187	8242.2160163375
5	88481	29806.088592780223	8239.3271333611
5	88488	29808.685967597154	8220.0877125538
5	88493	29812.675267234356	8223.0992077574
5	88502	29817.956050252486	8221.1533988058
5	88518	29819.734981626772	8210.1789422652
5	88542	29827.117025678998	8217.4671603404
5	88563	29834.526747268307	8220.4578279862
5	88570	29837.487196738117	8223.2406706119
5	88575	29841.223937841141	8225.7170524778
5	88586	29844.214869041881	8227.5860895765
5	88607	29852.377060360116	8232.2183119893
5	88622	29862.104407374065	8228.8246614886
5	88637	29866.896985885011	8231.5953868256
5	88646	29871.067468839781	8228.057260136
5	88658	29877.761275962217	8232.9845558424
5	88665	29890.381745043429	8239.6872733466
5	88679	29895.564067719755	8243.1175706249
5	88688	29899.200205258344	8242.9230463467
5	88736	29923.92708618856	8264.1752365167
5	88752	29928.927960130858	8267.6701257402
5	88766	29938.988025009542	8273.5284263087
5	88799	29949.958829970475	8279.4698658642
5	88857	29966.221660355332	8284.1041093526
5	88862	29966.32099092484	8283.8035010572
5	88871	29968.73835876325	8285.6478040488

