version 2
run Third-n2-0-20191016-14:53:33-9604
attr configname Third-n2
attr datetime 20191016-14:53:33
attr experiment Third-n2
attr inifile omnetpp.ini
attr iterationvars ""
attr iterationvarsf ""
attr measurement ""
attr network org.omnetpp.queueing.Pizza
attr processid 9604
attr repetition 0
attr replication ""
attr resultdir results
attr runnumber 0
attr seedset 0
param **.PS.maxInventoriedPS 2
param **.U1.interArrivalTime exponential(4s)
param **.U2.interArrivalTime exponential(6s)
param **.PS.serviceTimeForInventoryU1 exponential(1.4s)
param **.PS.serviceTimeForInventoryU2 exponential(1.4s)
param **.PS.serviceTimeDirectU1 exponential(1.8s)
param **.PS.serviceTimeDirectU2 exponential(1.8s)
param **.PS.probabilityProducing 0.8
param **.CS.serviceTimeU1 exponential(2.3s)
param **.CS.serviceTimeU2 exponential(2.3s)

vector 0 Pizza.EntryQueueU1 queueLength:vector ETV
attr interpolationmode sample-hold
attr title "queue length, vector"
vector 1 Pizza.CS queueLength:vector ETV
attr interpolationmode sample-hold
attr title "queue length, vector"
vector 2 Pizza.EntryQueueU2 queueLength:vector ETV
attr interpolationmode sample-hold
attr title "queue length, vector"
vector 3 Pizza.sink lifeTime:vector ETV
attr interpolationmode none
attr title "lifetime of arrived jobs, vector"
attr unit s
vector 4 Pizza.sink lifeTimeU2:vector ETV
attr interpolationmode none
attr title "lifetime of arrived jobs, vector"
attr unit s
0	0	0	0
0	10	8.207221050453	1
0	13	10.852402924663	0
0	23	12.359858253108	1
0	28	18.476701168498	0
0	34	19.048703054408	1
0	42	24.452685565951	0
0	49	26.282180111508	1
0	50	28.56390719186	0
0	59	32.305317146058	1
0	60	33.257959288457	0
0	77	38.726275374304	1
0	78	39.643449922535	0
0	85	42.215560154472	1
0	87	45.166869321496	2
0	89	45.614653964027	3
0	90	46.300617021905	2
0	96	46.774884570575	1
0	101	47.336196099269	0
0	110	47.756916844938	1
0	113	48.663327711422	0
0	119	51.602440601201	1
0	123	55.747014831378	0
0	129	56.182996420001	1
0	131	56.601241323102	2
0	133	56.849702484968	3
0	136	58.498062770129	2
0	143	60.947239630797	1
0	148	61.987074369314	0
0	171	70.850557222786	1
0	175	72.782207510344	0
0	181	72.990815931119	1
0	184	73.458637570289	2
0	185	73.730960339166	1
0	190	74.234385711133	0
0	196	74.984860943786	1
0	200	79.329938467299	2
0	202	79.384596781022	3
0	206	79.793176307122	4
0	208	80.197315408358	5
0	210	82.186900557701	4
0	219	90.83933331206	3
0	225	92.179953606454	2
0	231	93.204418368869	1
0	236	94.084630551251	0
0	240	94.491668897736	1
0	244	96.631206400764	2
0	246	96.896396006693	3
0	248	97.87397779902	4
0	253	102.515710707621	3
0	259	102.590735907281	4
0	260	102.742606416983	3
0	267	108.835895052939	2
0	272	109.160955694129	1
0	284	112.751953939116	2
0	285	113.395905378549	1
0	292	115.971143538322	2
0	294	115.989969700291	3
0	296	116.623335725213	4
0	297	117.457109845099	3
0	305	120.255079748003	2
0	311	121.153872293103	3
0	312	121.561259301008	2
0	318	122.297956183135	3
0	319	122.72125005616	2
0	325	125.884319666279	3
0	330	129.958954586354	4
0	335	132.344472163672	5
0	336	133.816218303544	4
0	343	137.153426432658	5
0	344	137.166900988242	4
0	351	139.276316419124	5
0	352	142.064749599198	4
0	358	142.75845972443	5
0	361	147.475991459009	6
0	362	149.802801641216	5
0	368	151.555097515197	4
0	374	152.643628534212	5
0	375	152.710412351197	4
0	385	154.191853180339	3
0	392	154.849212494749	4
0	393	154.979832317145	3
0	398	155.314652467575	2
0	405	157.450980731825	1
0	413	159.886702318202	0
0	419	160.381129320896	1
0	420	160.461889756651	0
0	450	169.455665291666	1
0	454	169.608796943205	2
0	458	172.448468652101	3
0	460	173.178623059631	4
0	462	173.70735789809	5
0	463	174.019083488133	4
0	470	178.623652427843	3
0	475	178.970471751289	2
0	479	179.746651720528	3
0	481	179.881798862736	4
0	485	180.168500399988	5
0	487	182.037590665628	6
0	488	182.661146507897	5
0	495	184.454786953018	6
0	497	184.521858016987	7
0	504	188.27126663183	6
0	509	191.282652869082	5
0	513	192.268166966952	6
0	515	193.021346867828	7
0	518	193.906478424364	6
0	524	194.679797038464	7
0	525	194.694640067143	6
0	529	195.429872843275	7
0	535	197.920262219189	8
0	538	198.510194300054	7
0	543	200.27146464264	6
0	550	205.261369813539	5
0	556	209.458439372816	6
0	558	210.702310592695	7
0	559	211.520470802139	6
0	568	214.509629422864	7
0	570	216.113966327366	6
0	575	216.663097934916	5
0	581	217.136971646427	4
0	586	218.520833315433	3
0	591	220.32790289784	2
0	599	222.515517555854	1
0	606	225.25679119426	0
0	613	227.861366758279	1
0	614	227.909284674873	0
0	620	228.139837442573	1
0	621	229.407115358283	0
0	625	230.558162315914	1
0	629	233.6346415203	2
0	630	234.326422862131	1
0	636	237.969677094353	0
0	668	252.193251625795	1
0	671	253.150978149918	0
0	678	258.592129393155	1
0	679	260.173302889983	0
0	687	263.244582526857	1
0	688	263.749027646943	0
0	722	271.735569142625	1
0	725	272.934799161175	0
0	746	278.327873835269	1
0	747	278.766454059881	0
0	753	278.953776916807	1
0	754	279.073137493408	0
0	763	280.711598478778	1
0	769	286.20897053646	2
0	770	287.136598071079	1
0	775	287.243979881461	0
0	792	289.422537587128	1
0	793	289.904299275115	0
0	811	295.573852445034	1
0	815	301.769899161654	2
0	816	302.955699888911	1
0	823	305.500346582729	2
0	825	306.55465503407	3
0	826	310.451218136436	2
0	836	314.998210131601	3
0	839	316.9754905812	2
0	847	319.929731983724	3
0	848	321.256783360059	2
0	853	322.237815727743	1
0	858	322.606584145062	0
0	864	325.866701914324	1
0	866	328.469891283761	2
0	874	334.072594071603	3
0	875	334.999784899117	2
0	879	335.328585663856	3
0	885	337.442454577063	4
0	890	339.79866604452	3
0	895	340.035493281074	2
0	901	340.306635849038	3
0	904	341.9724067776	2
0	911	349.023251750348	1
0	918	352.873604226013	0
0	931	354.742399868973	1
0	932	358.868719371351	0
0	939	359.914991304156	1
0	940	360.622293845045	0
0	952	361.367960179763	1
0	953	363.415048238248	0
0	965	368.01982330246	1
0	966	368.740186575596	0
0	992	375.90005356483	1
0	993	376.281040947751	0
0	1004	378.233748648971	1
0	1005	378.530243233969	0
0	1017	381.08178091147	1
0	1021	382.5369645766	0
0	1035	385.656543393817	1
0	1037	386.229555479344	2
0	1039	387.107428122919	3
0	1045	391.469720257447	2
0	1053	392.927764148377	1
0	1059	393.149274527815	2
0	1062	394.909599379506	1
0	1069	395.290891932189	2
0	1070	398.430550743076	1
0	1076	398.542485376931	2
0	1079	399.163627718951	3
0	1080	400.197533429371	2
0	1085	400.514825862809	1
0	1090	400.880553501448	0
0	1094	403.356784138776	1
0	1096	404.053579005108	2
0	1100	404.882319734113	3
0	1106	407.923757126127	2
0	1111	408.122976213355	1
0	1118	412.189776333564	0
0	1124	414.255279454484	1
0	1125	414.384356310187	0
0	1144	418.940334234272	1
0	1146	419.640314427145	2
0	1148	419.679572172738	3
0	1151	420.377300322379	2
0	1161	426.045796663911	3
0	1165	428.54831513554	2
0	1171	429.933840228159	3
0	1180	436.694780047193	4
0	1183	439.780362813334	3
0	1191	440.710984742706	4
0	1195	445.914334452546	5
0	1196	446.129753061406	4
0	1203	451.337208507946	5
0	1205	453.093516450297	6
0	1206	453.475405368575	5
0	1211	453.51327092174	4
0	1221	455.440591677017	5
0	1223	455.860322666331	6
0	1224	457.806544003156	5
0	1229	458.044986927433	4
0	1234	458.267031869197	3
0	1239	459.56497985749	2
0	1243	459.618330609784	3
0	1246	460.119220763353	2
0	1250	460.701228172733	3
0	1252	460.764144667833	4
0	1255	461.611431280472	3
0	1262	463.602124524171	2
0	1267	463.629975787813	1
0	1273	463.642724258587	2
0	1276	467.497095043744	3
0	1279	469.372780352835	4
0	1281	469.559719959777	5
0	1285	471.663843142818	6
0	1289	472.375350174243	7
0	1290	472.824371784269	6
0	1295	474.374441705972	5
0	1300	475.430205939193	4
0	1306	476.448220489471	5
0	1309	477.809169367925	6
0	1311	479.274687874337	5
0	1317	481.586034485174	4
0	1323	482.411819739643	5
0	1326	483.261302903149	4
0	1332	484.545454518458	3
0	1337	485.778021747739	2
0	1347	490.106774022316	3
0	1348	490.902206102059	2
0	1358	493.185503237291	1
0	1363	493.869462351479	0
0	1371	500.466078604305	1
0	1375	505.244038378337	2
0	1377	506.651107920057	3
0	1378	506.718417268259	2
0	1382	507.167261932794	3
0	1384	508.273152798967	4
0	1386	509.420789180501	5
0	1388	510.45723820403	6
0	1390	510.905016368605	7
0	1392	513.594547976756	8
0	1395	516.023291777355	7
0	1400	516.959588939156	6
0	1407	523.727512416565	5
0	1413	525.378240688679	4
0	1419	525.6544210655	5
0	1422	526.002819009547	4
0	1433	532.00384998427	5
0	1434	532.258520453449	4
0	1440	533.089729849988	5
0	1444	534.122654691968	4
0	1449	535.809072970929	3
0	1458	541.250142016164	2
0	1462	544.519431241252	3
0	1464	545.085003692183	4
0	1471	550.283605016741	3
0	1479	551.526531221225	2
0	1484	551.768942320023	1
0	1490	556.961138938763	0
0	1502	565.825521384314	1
0	1503	565.910232146701	0
0	1509	566.796503133753	1
0	1511	567.75744672212	0
0	1538	581.67413637735	1
0	1540	581.781658855391	2
0	1543	584.501939080349	1
0	1550	587.33636795086	2
0	1553	588.074831442486	3
0	1556	590.433899281157	2
0	1564	595.494656718179	1
0	1573	597.344935692748	2
0	1574	598.593789012668	1
0	1582	600.36578296379	2
0	1584	601.283051650337	3
0	1585	601.445094598086	2
0	1591	604.038943595304	1
0	1596	604.408057042228	0
0	1604	605.804880443594	1
0	1606	607.324557307784	0
0	1612	607.670068549344	1
0	1615	609.462420422846	2
0	1619	612.256744447162	3
0	1621	612.923927479652	4
0	1623	613.022382055936	5
0	1624	613.195253242943	4
0	1630	615.239455949589	5
0	1632	615.273648024169	6
0	1635	615.434240093329	5
0	1640	615.717053997171	4
0	1647	616.582489549475	5
0	1649	618.638693158005	4
0	1655	619.23113835059	3
0	1662	621.734050505916	4
0	1663	627.461692320016	3
0	1669	628.912742961905	4
0	1671	628.980805456823	5
0	1672	633.12577413965	4
0	1678	633.382679578734	5
0	1685	636.990423659837	4
0	1690	637.225717756159	3
0	1696	638.004578493721	4
0	1700	640.940058361811	5
0	1702	641.321196293301	6
0	1704	643.793405801861	7
0	1706	644.827242796731	8
0	1709	648.09642670894	7
0	1718	651.841035269837	8
0	1719	653.116668654297	7
0	1725	654.308592704936	6
0	1731	655.699034316877	7
0	1732	656.544305332439	6
0	1737	658.34099354941	5
0	1741	658.493448584662	6
0	1743	659.008963168829	7
0	1746	660.522571206785	6
0	1756	666.993208316303	5
0	1764	669.280693683638	6
0	1766	669.980334724021	7
0	1768	673.451355295778	8
0	1769	673.984130973611	7
0	1774	674.609422402332	6
0	1779	676.609537732257	5
0	1786	677.864378083188	4
0	1795	682.148286924315	5
0	1796	682.374586971914	4
0	1801	682.516764113805	3
0	1810	684.297682591371	2
0	1817	687.199329269023	1
0	1822	690.295129801921	0
0	1826	690.579408357929	1
0	1830	693.082831950808	0
0	1872	715.363048832817	1
0	1873	716.52818596123	0
0	1879	717.009851144308	1
0	1881	717.582744230233	2
0	1882	718.594511404035	1
0	1890	719.333702054686	2
0	1891	719.562047050555	1
0	1897	722.910125607186	2
0	1899	723.063280798276	3
0	1901	723.830359568687	2
0	1910	730.212295198322	1
0	1919	735.284717047068	0
0	1959	751.997154609471	1
0	1960	755.606931572536	0
0	1983	762.982162090369	1
0	1987	764.734555462442	0
0	2000	770.905983274863	1
0	2002	772.170931698232	2
0	2004	774.715133582729	3
0	2005	775.989903302093	2
0	2014	777.278795275513	3
0	2015	777.394637904283	2
0	2020	777.487691202302	1
0	2025	778.215474202034	0
0	2031	779.483347068772	1
0	2034	779.726044269471	2
0	2036	780.492994210313	1
0	2044	781.416803421739	2
0	2046	781.505678029814	3
0	2047	781.597665382072	2
0	2056	783.766524569202	3
0	2057	784.089826215147	2
0	2064	787.070345193094	1
0	2069	788.264628760319	0
0	2087	793.579747935215	1
0	2089	793.936091765178	2
0	2092	794.451336019965	1
0	2100	798.79511459945	2
0	2103	801.805951161998	1
0	2110	803.566691051229	0
0	2127	806.86976963916	1
0	2129	809.876122291371	0
0	2151	811.969175449359	1
0	2152	812.421738794515	0
0	2161	812.592452193799	1
0	2164	813.161554853137	0
0	2182	820.351899232162	1
0	2185	821.737760031345	0
0	2194	823.356988726843	1
0	2196	825.323170161856	2
0	2201	826.492193629664	1
0	2208	829.025404609771	0
0	2222	835.803976469378	1
0	2223	836.180192483935	0
0	2231	837.692891463954	1
0	2232	838.022282454515	0
0	2238	838.588046552496	1
0	2239	838.769361105201	0
0	2245	838.998363592084	1
0	2246	839.05654107823	0
0	2253	841.012068053901	1
0	2255	841.02753934665	2
0	2257	841.395238084334	1
0	2262	841.590442329726	0
0	2270	844.783613760744	1
0	2272	845.834989734436	0
0	2309	858.35533661931	1
0	2310	858.679455511107	0
0	2319	862.762384288571	1
0	2320	863.569095821976	0
0	2346	871.97681179509	1
0	2349	873.69883545266	0
0	2372	882.219987454161	1
0	2374	882.549037716046	2
0	2379	885.53399039292	1
0	2386	886.186615628762	0
0	2393	889.364764133719	1
0	2394	891.020510872145	0
0	2403	891.627255817808	1
0	2404	893.107560588005	0
0	2413	897.545556383133	1
0	2415	898.698409054767	2
0	2416	899.309590752022	1
0	2422	899.403464102829	0
0	2428	899.715227705609	1
0	2429	900.610413124199	0
0	2442	904.440849299974	1
0	2444	905.420082757602	0
0	2458	908.10794478672	1
0	2460	908.463561686305	2
0	2461	908.729434469845	1
0	2467	908.924644034611	0
0	2486	916.762171215897	1
0	2487	917.128691163179	0
0	2494	917.387341785901	1
0	2496	917.649994526609	2
0	2497	918.403084696329	1
0	2503	918.877904056778	2
0	2508	919.247454131799	3
0	2509	924.599417371788	2
0	2516	924.992836555582	1
0	2527	927.064689218591	2
0	2528	927.980995020177	1
0	2533	928.041011139591	0
0	2546	931.123196235649	1
0	2547	932.734915127865	0
0	2556	933.563479400753	1
0	2560	937.027769501388	0
0	2572	940.363975117809	1
0	2578	943.263668863041	2
0	2579	945.482366897436	1
0	2585	945.874234822414	0
0	2592	948.610313018046	1
0	2593	948.72496328761	0
0	2597	949.389537404129	1
0	2599	952.0323977778	2
0	2603	953.101910504839	1
0	2609	954.886842390815	2
0	2610	955.394111846894	1
0	2614	956.216650077151	2
0	2618	957.87647640805	3
0	2620	959.01468481621	2
0	2626	959.530821384331	1
0	2632	962.820325885323	0
0	2661	971.085212217862	1
0	2662	971.216616694864	0
0	2691	986.383490843618	1
0	2692	991.742677949793	0
0	2700	994.81816077116	1
0	2701	996.364547768204	0
0	2709	997.146884983707	1
0	2710	997.269557281231	0
0	2719	999.894867527335	1
0	2727	1002.306111159353	2
0	2728	1003.538236174872	1
0	2735	1004.969751630869	0
0	2749	1008.966730068863	1
0	2751	1010.595438791016	2
0	2754	1011.020278912598	1
0	2763	1014.192474219295	0
0	2767	1014.902073386426	1
0	2769	1015.267827978591	2
0	2771	1015.673527112152	3
0	2775	1017.627484257714	4
0	2778	1022.333456538034	3
0	2782	1022.856649797717	4
0	2786	1024.532933011994	5
0	2787	1024.95475782679	4
0	2791	1026.043787834147	5
0	2797	1030.327608019642	6
0	2799	1030.537712381073	7
0	2801	1031.699955278756	6
0	2810	1034.725381011641	5
0	2816	1035.350575105373	4
0	2822	1036.282243532493	3
0	2828	1037.766847005852	2
0	2835	1038.581251246074	1
0	2843	1039.794811975525	2
0	2845	1040.826592892679	3
0	2850	1042.448389355142	2
0	2856	1042.5355833579	3
0	2859	1043.605087913504	2
0	2864	1044.751152193091	1
0	2873	1049.127526451561	0
0	2888	1057.71571269279	1
0	2889	1058.030276534882	0
0	2902	1060.040541905239	1
0	2905	1062.778217671489	2
0	2907	1063.280659068864	3
0	2908	1064.599794153183	2
0	2914	1066.155674876882	1
0	2919	1066.488751986193	0
0	2925	1067.181575238602	1
0	2926	1068.00424164392	0
0	2930	1069.884384501643	1
0	2934	1070.184789185098	2
0	2940	1071.499437415776	3
0	2942	1072.2762013309	4
0	2945	1073.412735768164	3
0	2953	1086.312859767474	4
0	2955	1089.374941662849	5
0	2957	1089.689238570674	6
0	2961	1091.060597474116	7
0	2963	1092.511217526281	8
0	2964	1094.160047432917	7
0	2971	1098.762623743903	8
0	2972	1100.019185309969	7
0	2980	1102.882138091191	6
0	2985	1104.441504791128	5
0	2993	1105.307062706289	6
0	2994	1106.724413762173	5
0	3000	1107.589553738299	6
0	3002	1107.638537093671	7
0	3004	1107.76885970801	8
0	3005	1108.390732149453	7
0	3011	1109.328188694082	8
0	3012	1110.13004099413	7
0	3019	1112.822244390077	6
0	3026	1114.084860992108	7
0	3028	1115.422486459369	6
0	3036	1121.566533201328	5
0	3045	1124.201386751979	6
0	3047	1124.693952779622	7
0	3049	1124.81851651342	8
0	3051	1125.939362425841	9
0	3052	1126.433986051818	8
0	3058	1126.955906077284	9
0	3059	1127.01517391873	8
0	3069	1130.44806228417	9
0	3071	1130.532752811593	10
0	3074	1131.677013920003	9
0	3083	1135.329455595827	10
0	3085	1138.882592004458	11
0	3087	1139.93523559088	12
0	3091	1145.532593840559	13
0	3092	1146.000107906354	12
0	3098	1146.608475953926	13
0	3102	1150.212265760593	12
0	3108	1150.690885892544	13
0	3110	1156.364212366471	12
0	3115	1156.835700806799	11
0	3120	1157.152560406946	10
0	3125	1158.071863234553	9
0	3131	1158.235481200128	10
0	3132	1160.577397339986	9
0	3138	1162.088911530772	8
0	3143	1162.797995898679	7
0	3148	1165.590920666366	6
0	3159	1167.058418711926	5
0	3165	1168.35176028935	4
0	3172	1171.636541622953	5
0	3173	1172.7654543661	4
0	3178	1172.923005934199	3
0	3184	1172.954287718971	2
0	3189	1173.6347822955	1
0	3193	1174.216444973705	2
0	3199	1176.524760624949	1
0	3208	1179.413029007087	0
0	3215	1181.159118771724	1
0	3216	1182.072980769246	0
0	3233	1184.148793473812	1
0	3236	1189.273374349924	0
0	3259	1197.617906722592	1
0	3261	1198.159938033151	2
0	3265	1198.621149328587	3
0	3266	1199.067501317617	2
0	3273	1201.413869458741	1
0	3280	1204.330434787271	2
0	3281	1204.839580009992	1
0	3287	1204.938182221703	2
0	3292	1212.834848982983	3
0	3299	1219.040233277793	2
0	3304	1219.706896179652	1
0	3311	1220.712695048524	0
0	3322	1221.443911113286	1
0	3324	1224.227687882385	0
0	3330	1224.429689003355	1
0	3336	1228.2483396762	2
0	3339	1230.010522796844	3
0	3341	1231.249055699926	4
0	3344	1231.388514047465	3
0	3350	1235.439075197806	2
0	3356	1240.390061682979	1
0	3366	1241.845823395337	2
0	3367	1242.349688081032	1
0	3373	1242.752402269073	2
0	3374	1242.888019287501	1
0	3381	1244.523561957253	2
0	3387	1245.245066750821	1
0	3393	1245.743145934529	2
0	3397	1246.666153282437	3
0	3398	1250.688995339076	2
0	3403	1253.229023890461	1
0	3408	1253.876257079496	0
0	3420	1263.404754524316	1
0	3421	1264.417532202389	0
0	3434	1267.103286203392	1
0	3437	1268.233303152581	0
0	3458	1279.608760779583	1
0	3459	1279.622776430103	0
0	3468	1285.885044168729	1
0	3469	1286.21735039733	0
0	3475	1286.885141311002	1
0	3476	1287.127840869159	0
0	3482	1287.31747054013	1
0	3483	1287.546139895949	0
0	3490	1288.612917369539	1
0	3491	1289.031726724736	0
0	3508	1294.485257020869	1
0	3511	1296.007665332812	2
0	3513	1299.23365596704	1
0	3518	1299.376790066664	0
0	3544	1304.74200779854	1
0	3545	1308.152717197644	0
0	3561	1311.153629948378	1
0	3565	1314.117158664627	0
0	3601	1327.657918783507	1
0	3610	1333.409657712191	0
0	3621	1334.676953542338	1
0	3623	1336.866928844316	0
0	3635	1337.964974105102	1
0	3636	1338.000393897297	0
0	3642	1339.399160443526	1
0	3645	1341.078963288612	2
0	3647	1344.5565489799	1
0	3653	1345.527230370354	0
0	3662	1348.952301049314	1
0	3663	1349.411048604205	0
0	3676	1353.119920624549	1
0	3678	1353.551998808618	2
0	3681	1354.827012817204	1
0	3688	1355.255070718944	0
0	3700	1357.498430047027	1
0	3702	1357.501197205224	2
0	3708	1366.455756680024	1
0	3721	1376.170927052343	0
0	3734	1377.162675189622	1
0	3735	1377.167401579294	0
0	3750	1377.605222213635	1
0	3758	1379.817747098113	2
0	3759	1380.467170146754	1
0	3764	1380.616072134565	0
0	3774	1383.062579475568	1
0	3780	1386.824264826798	2
0	3789	1390.020871400371	1
0	3794	1390.157004255233	0
0	3806	1393.372784932691	1
0	3810	1397.021142945652	2
0	3812	1399.183116513751	3
0	3813	1402.400197391209	2
0	3819	1405.121888142963	1
0	3825	1405.812495525469	0
0	3837	1408.758999720312	1
0	3841	1420.262683947697	0
0	3856	1424.266842134202	1
0	3858	1424.412430493743	2
0	3859	1426.279380084535	1
0	3865	1427.883324737235	0
0	3872	1428.475110462858	1
0	3873	1431.05368305961	0
0	3890	1434.786235119517	1
0	3892	1436.028377710202	2
0	3894	1436.114738033179	3
0	3895	1436.725580030313	2
0	3900	1437.520372024755	1
0	3905	1438.048055324287	0
0	3927	1445.209076131611	1
0	3929	1445.309400009861	2
0	3930	1446.140865970621	1
0	3937	1448.625758090196	0
0	3943	1450.055609776059	1
0	3945	1450.47808946806	2
0	3947	1451.579501577624	3
0	3948	1454.465600943563	2
0	3955	1457.879404763583	1
0	3963	1459.652572384475	2
0	3968	1460.726919418983	1
0	3973	1463.402823581329	0
0	4000	1470.766315550948	1
0	4005	1478.771355976661	0
0	4011	1479.351294689162	1
0	4014	1482.391226673508	2
0	4016	1484.183296582096	3
0	4018	1484.334642429274	4
0	4020	1484.650166361372	5
0	4022	1484.70758251324	6
0	4027	1490.629277786193	5
0	4033	1495.254396712006	4
0	4041	1497.104527693264	3
0	4046	1497.512260624658	2
0	4051	1497.707994488822	1
0	4056	1499.204212259214	0
0	4065	1501.25583215977	1
0	4069	1501.851734825033	0
0	4104	1511.777876299811	1
0	4106	1511.837441321862	2
0	4108	1513.240735282134	3
0	4109	1514.196074606455	2
0	4116	1515.20780881575	1
0	4124	1517.189900720391	0
0	4131	1519.733537187944	1
0	4132	1520.536316155084	0
0	4150	1524.401316986999	1
0	4154	1528.812533382803	0
0	4160	1529.783961737007	1
0	4162	1532.438249094838	0
0	4172	1535.867665202487	1
0	4178	1539.652426343503	0
0	4198	1547.399598881298	1
0	4200	1547.55964777027	2
0	4202	1547.682279619791	3
0	4208	1549.801600772234	2
0	4214	1549.931777287598	3
0	4216	1552.555408712247	2
0	4221	1552.800569898691	1
0	4231	1554.080464818868	2
0	4232	1554.500180289628	1
0	4238	1555.611535257554	2
0	4240	1559.834402757852	1
0	4246	1562.044747561743	0
0	4263	1569.105974481391	1
0	4269	1570.004887542754	2
0	4270	1571.418585447913	1
0	4280	1576.330343728156	2
0	4281	1577.012496580278	1
0	4286	1577.383517899759	0
0	4300	1578.348621213635	1
0	4303	1578.869445956228	2
0	4307	1580.071706004655	3
0	4308	1580.274232829454	2
0	4314	1580.319539380532	3
0	4317	1580.887202555229	4
0	4320	1581.504838050099	5
0	4334	1592.97089243934	6
0	4336	1594.493247624876	7
0	4338	1594.798931815501	8
0	4340	1596.218496842976	9
0	4343	1600.584995331485	8
0	4350	1601.776909261329	7
0	4356	1604.63686065972	6
0	4361	1605.014406671178	5
0	4367	1607.680546797984	4
0	4374	1609.282498585719	5
0	4376	1610.141896811153	4
0	4381	1610.844863463023	3
0	4386	1612.392135386705	2
0	4391	1614.397159996659	1
0	4398	1615.915878839596	0
0	4415	1618.849839094363	1
0	4416	1620.543202248114	0
0	4427	1626.072770484956	1
0	4428	1626.901590434687	0
0	4434	1627.340121685104	1
0	4438	1630.331245065535	2
0	4440	1630.758798653084	3
0	4441	1631.235455432149	2
0	4446	1631.739063819451	1
0	4450	1632.215258595331	2
0	4452	1632.251034099867	3
0	4454	1634.706329694907	4
0	4460	1639.29323806382	3
0	4465	1640.490040185109	2
0	4471	1643.58303500798	3
0	4479	1647.325175012365	4
0	4480	1647.519584698726	3
0	4485	1647.608124658971	2
0	4493	1648.009663824255	3
0	4498	1649.086577273974	2
0	4503	1649.599459838156	1
0	4508	1650.39169094201	0
0	4512	1650.902169078848	1
0	4514	1651.057318164062	2
0	4517	1652.921317854293	1
0	4523	1656.122399861923	2
0	4526	1657.22508165967	1
0	4530	1659.155227743447	2
0	4536	1661.145137584378	1
0	4541	1662.169633534338	0
0	4580	1674.346973197787	1
0	4582	1674.834592382326	2
0	4586	1679.235623433269	3
0	4587	1682.128915857293	2
0	4594	1685.596461534022	3
0	4596	1689.149823085984	4
0	4597	1691.18084741358	3
0	4602	1691.688285431545	2
0	4613	1695.803957565074	1
0	4618	1697.165376677896	0
0	4637	1702.11963339175	1
0	4638	1702.280835141726	0
0	4650	1708.007810508033	1
0	4651	1708.105808313142	0
0	4669	1713.602675396353	1
0	4672	1716.923217211632	0
0	4679	1718.659824894898	1
0	4682	1721.19623082865	2
0	4684	1722.169409554489	3
0	4685	1722.37359842172	2
0	4691	1724.749075144394	1
0	4699	1724.929496122972	2
0	4700	1725.008864425769	1
0	4708	1727.371085597877	2
0	4712	1729.086011497663	3
0	4713	1729.573357879684	2
0	4719	1732.202083597706	1
0	4724	1733.433077778555	0
0	4741	1736.643492684448	1
0	4746	1737.220951834848	2
0	4748	1739.197955022693	1
0	4754	1739.96625658613	2
0	4756	1740.709535971354	1
0	4761	1740.872980985999	0
0	4769	1743.132545415827	1
0	4770	1748.106935909444	0
0	4777	1749.330216226285	1
0	4781	1750.85896021841	2
0	4782	1751.054485966361	1
0	4789	1752.454629171123	2
0	4790	1752.875584669649	1
0	4798	1755.976022333722	0
0	4812	1760.154979323465	1
0	4813	1761.597133183321	0
0	4819	1761.670586758969	1
0	4824	1766.866216343678	0
0	4831	1768.184900145943	1
0	4835	1768.749200953662	2
0	4839	1774.142840626107	3
0	4845	1781.024658221216	4
0	4846	1781.862597421539	3
0	4853	1782.101759613775	2
0	4860	1782.707707130824	3
0	4862	1782.897683861002	4
0	4863	1783.487908150429	3
0	4868	1783.553099876587	2
0	4876	1788.918578721984	1
0	4881	1790.175361934408	0
0	4899	1792.777329317854	1
0	4902	1794.93788804941	2
0	4903	1795.675527614667	1
0	4909	1796.839564242035	0
0	4915	1796.869863298421	1
0	4916	1797.002258499375	0
0	4944	1807.453893521158	1
0	4951	1812.552769908921	0
0	4957	1813.021228228582	1
0	4959	1814.609863208761	0
0	4981	1821.361208620071	1
0	4983	1825.832513039262	2
0	4985	1826.18472720798	3
0	4986	1827.033871053894	2
0	4991	1827.115788145366	1
0	4997	1828.803845312357	0
0	5006	1832.658962042105	1
0	5009	1835.076917129324	0
0	5036	1846.513986497087	1
0	5038	1846.850966907911	0
0	5044	1847.666303697842	1
0	5048	1850.969052984157	2
0	5049	1853.535354682809	1
0	5055	1854.596241159549	2
0	5056	1854.823430544412	1
0	5062	1854.996068097265	2
0	5064	1856.064176594082	1
0	5070	1856.288308823532	0
0	5082	1861.066941575217	1
0	5083	1861.430342972727	0
0	5096	1867.807579195498	1
0	5099	1869.61112991759	0
0	5106	1871.359097056231	1
0	5108	1871.9144518337	2
0	5109	1872.179437614385	1
0	5114	1872.190382884988	0
0	5155	1879.575289186545	1
0	5156	1880.595426608585	0
0	5163	1882.306213373718	1
0	5166	1885.906955448524	0
0	5185	1888.182683295224	1
0	5188	1894.572199437778	0
0	5205	1899.815838358026	1
0	5211	1900.48875898186	2
0	5212	1900.64948105585	1
0	5218	1901.667663687777	2
0	5220	1902.592625719224	3
0	5221	1902.805773711185	2
0	5228	1904.376986824104	3
0	5229	1906.601962636786	2
0	5234	1907.16541419203	1
0	5240	1907.58685134994	2
0	5241	1907.684099927079	1
0	5246	1908.398833388043	0
0	5281	1917.993354252873	1
0	5285	1921.670813622569	2
0	5288	1924.133219181344	1
0	5293	1924.856207124463	0
0	5313	1928.86803831841	1
0	5315	1929.001104961071	2
0	5318	1930.831898522813	1
0	5324	1930.94091247638	2
0	5326	1931.000960995898	3
0	5328	1931.671916635078	4
0	5329	1931.833605691869	3
0	5338	1935.787242760579	4
0	5340	1936.717558105381	5
0	5341	1936.794622996616	4
0	5348	1937.529032795601	3
0	5358	1941.501449631169	4
0	5360	1941.853327937055	5
0	5361	1942.045550745534	4
0	5369	1945.742761562408	5
0	5373	1950.284214915143	6
0	5374	1950.53095128831	5
0	5380	1951.470123985018	6
0	5384	1952.870290624646	5
0	5389	1953.321687214581	4
0	5396	1955.262426673312	3
0	5402	1955.360323991313	4
0	5404	1959.542542191387	3
0	5413	1963.09777760716	4
0	5415	1963.399259097675	5
0	5416	1965.182949843438	4
0	5421	1965.895377143832	3
0	5427	1967.880141351806	2
0	5433	1968.238401847792	1
0	5439	1972.467636783492	0
0	5459	1980.110615714231	1
0	5460	1981.237955999309	0
0	5466	1981.501005475704	1
0	5468	1982.526753691438	2
0	5469	1983.414245433421	1
0	5476	1984.321158017783	0
0	5484	1986.0064685275	1
0	5486	1987.638529089966	0
0	5499	1990.885958510269	1
0	5500	1992.253752053538	0
0	5508	1994.629298883487	1
0	5512	2000.711013875213	0
0	5536	2012.700896027587	1
0	5538	2013.483261223632	2
0	5541	2015.578082614388	1
0	5548	2016.727945865252	2
0	5550	2019.016712563769	3
0	5551	2020.016250415139	2
0	5558	2021.889821701328	3
0	5562	2024.934568884082	2
0	5567	2025.080552128727	1
0	5577	2029.329812513981	2
0	5578	2030.595758018485	1
0	5583	2031.038981634935	0
0	5609	2036.882410809568	1
0	5610	2036.969793713194	0
0	5627	2039.987530483644	1
0	5629	2040.462730837896	2
0	5630	2040.538347918823	1
0	5639	2043.7755419294	0
0	5665	2052.179295656468	1
0	5669	2056.816579859656	2
0	5670	2058.843887364659	1
0	5678	2060.276906202087	0
0	5695	2064.980534776326	1
0	5702	2070.820773668922	2
0	5703	2070.93536182667	1
0	5709	2071.135982980591	0
0	5741	2082.958697771268	1
0	5743	2083.186705230899	2
0	5747	2087.487736028927	1
0	5753	2088.252744675527	2
0	5757	2090.373517726094	1
0	5762	2091.105670964245	0
0	5770	2095.240213760327	1
0	5772	2096.272312763639	2
0	5778	2100.111561744982	3
0	5779	2100.389668192263	2
0	5784	2100.552470122977	1
0	5791	2102.35879850721	2
0	5794	2103.701668167607	3
0	5795	2104.038835344384	2
0	5802	2105.461444426125	3
0	5803	2106.06188621923	2
0	5809	2106.781784025697	1
0	5814	2106.921184467867	0
0	5837	2116.066746321654	1
0	5843	2123.470774769528	2
0	5847	2125.851958672725	3
0	5849	2126.025633500583	4
0	5850	2126.65499599948	3
0	5856	2127.760621397548	2
0	5861	2128.129113953277	1
0	5866	2128.987726988842	0
0	5874	2130.600101519046	1
0	5877	2136.654756780147	0
0	5895	2139.626435639547	1
0	5898	2139.755291949521	0
0	5904	2140.187784138908	1
0	5905	2140.402031799716	0
0	5925	2151.631150299626	1
0	5927	2154.761535855293	2
0	5929	2156.175244994922	3
0	5935	2159.784585834939	4
0	5937	2160.319450474448	5
0	5939	2162.131467476313	6
0	5942	2164.370024392591	5
0	5947	2164.788420089576	4
0	5953	2166.157106426933	3
0	5958	2166.563802247605	2
0	5963	2170.496183201447	1
0	5968	2173.230601230322	0
0	5974	2175.451787053787	1
0	5977	2175.746688995044	0
0	5981	2177.44263466532	1
0	5989	2180.670282518649	2
0	5995	2185.791172237968	3
0	5996	2186.101289446146	2
0	6002	2190.736192821657	1
0	6008	2190.897968610757	2
0	6010	2192.573546125309	3
0	6013	2196.685557531814	4
0	6014	2196.688443121963	3
0	6020	2198.893509589333	2
0	6026	2199.330933405442	1
0	6034	2199.591241367571	2
0	6035	2203.519791901338	1
0	6043	2206.457475752431	0
0	6060	2211.942708670758	1
0	6066	2214.904972147365	2
0	6069	2215.695940434409	1
0	6080	2217.67636634222	0
0	6111	2225.327382405503	1
0	6112	2225.571813000502	0
0	6124	2227.90383307857	1
0	6128	2228.611983922823	2
0	6131	2229.099212854348	3
0	6133	2230.473466330496	4
0	6136	2234.70466641472	3
0	6142	2235.422172833086	2
0	6151	2238.13558416844	3
0	6152	2239.382925293388	2
0	6158	2240.212638610255	3
0	6165	2243.769589778526	4
0	6167	2245.961499795007	5
0	6170	2248.830771132244	4
0	6180	2252.001879592077	5
0	6182	2252.1231131895	6
0	6183	2252.203509331195	5
0	6189	2254.012943495438	4
0	6195	2254.141059953076	5
0	6196	2255.225943166166	4
0	6202	2255.853334402513	3
0	6209	2256.464264636749	2
0	6214	2257.969703786316	1
0	6220	2259.384869940751	2
0	6224	2260.822244211324	3
0	6226	2266.504899263741	2
0	6231	2266.505068772978	1
0	6238	2269.961078890972	2
0	6240	2272.334356760538	1
0	6245	2272.733991458339	0
0	6280	2283.765006788794	1
0	6281	2284.293683297144	0
0	6304	2289.511938490413	1
0	6307	2289.966766576475	0
0	6326	2296.364244947709	1
0	6331	2298.789203139763	0
0	6373	2310.158881688949	1
0	6374	2310.670052417943	0
0	6390	2319.38675152481	1
0	6392	2321.777224440773	2
0	6393	2322.20234643429	1
0	6398	2322.557219422101	0
0	6435	2335.41687967684	1
0	6437	2335.53571122126	2
0	6439	2335.855289152461	3
0	6443	2338.138690334557	4
0	6445	2338.395669435462	5
0	6447	2340.499572033801	6
0	6448	2341.476382237433	5
0	6456	2351.961556922512	4
0	6462	2353.878456253778	3
0	6470	2356.710349938162	2
0	6475	2356.991138914849	1
0	6480	2357.800972743287	0
0	6484	2358.583367842231	1
0	6486	2359.358210957564	2
0	6488	2359.358957882809	3
0	6492	2360.900474618615	4
0	6495	2363.175820264857	3
0	6501	2364.002562324664	4
0	6502	2364.492752424985	3
0	6507	2366.90843357039	2
0	6511	2367.094515107651	3
0	6514	2368.69907987919	2
0	6519	2372.168975696772	1
0	6525	2374.623160475083	2
0	6526	2378.07225113854	1
0	6539	2383.713118637211	0
0	6558	2388.662343301206	1
0	6561	2390.322975125099	0
0	6567	2391.831421759323	1
0	6568	2392.854971798444	0
0	6577	2393.973563032278	1
0	6580	2398.036185835869	0
0	6596	2406.503393476094	1
0	6599	2407.348582006562	0
0	6612	2410.801542454687	1
0	6617	2414.268728346106	0
0	6635	2423.105932020029	1
0	6636	2423.855001154408	0
0	6666	2430.380130461547	1
0	6668	2430.810790826847	2
0	6671	2433.255049256915	1
0	6677	2434.237259459136	2
0	6679	2435.591904844695	1
0	6687	2437.175566353647	0
0	6693	2438.009474655359	1
0	6694	2438.497245391685	0
0	6708	2441.438111291074	1
0	6710	2444.698719054002	0
0	6735	2451.56051317216	1
0	6744	2462.832554552777	0
0	6754	2464.961916080922	1
0	6759	2470.043474668377	0
0	6769	2474.611330371023	1
0	6772	2481.177670696955	0
0	6778	2481.489807102244	1
0	6780	2481.834515966216	0
0	6812	2494.623056006692	1
0	6815	2498.507773969891	0
0	6830	2508.268716180246	1
0	6834	2508.593881173892	2
0	6837	2509.905179476749	1
0	6844	2510.155488887264	2
0	6847	2514.172316124584	1
0	6853	2514.922660404582	2
0	6855	2515.799724670968	3
0	6856	2515.904830821657	2
0	6862	2518.692576283513	1
0	6866	2518.930318612672	2
0	6870	2519.151816003527	3
0	6871	2520.14869348193	2
0	6875	2521.795514235685	3
0	6878	2526.789704867086	2
0	6884	2528.133057966109	3
0	6885	2529.092630423432	2
0	6889	2531.581276400565	3
0	6895	2533.530533940492	4
0	6901	2536.667024977231	3
0	6907	2537.016566727917	4
0	6909	2541.989800335311	5
0	6912	2542.590495278343	4
0	6920	2544.615572448123	5
0	6924	2546.009925689151	6
0	6925	2546.30441004665	5
0	6930	2548.327811360476	4
0	6935	2549.197058845293	3
0	6941	2550.075304803968	4
0	6945	2553.133293501942	5
0	6949	2554.823955323596	6
0	6952	2556.84840518651	5
0	6963	2559.978210212577	6
0	6965	2561.560082586522	7
0	6967	2563.637940957602	8
0	6968	2565.864420841929	7
0	6973	2566.833436249795	6
0	6981	2570.534462416511	7
0	6982	2570.601673380714	6
0	6989	2572.730009119771	7
0	6990	2573.361960840887	6
0	6995	2573.722487597657	5
0	7004	2576.329371435345	6
0	7005	2579.279371364842	5
0	7011	2580.208575902196	6
0	7012	2583.39566401565	5
0	7017	2584.98122702938	4
0	7021	2585.110325986854	5
0	7025	2587.089022529003	6
0	7031	2592.372946174692	7
0	7033	2592.855024922115	8
0	7034	2593.731127477948	7
0	7042	2595.461300662312	8
0	7046	2595.9399871101	9
0	7048	2598.083229857005	8
0	7053	2599.508362274198	7
0	7058	2601.335000922634	6
0	7069	2606.808010565323	5
0	7083	2614.102462098078	4
0	7089	2614.546230268493	5
0	7091	2618.072099236239	4
0	7097	2619.120650260598	3
0	7103	2619.82548798398	4
0	7104	2619.899902959423	3
0	7111	2620.178358180864	4
0	7114	2624.078160344474	5
0	7115	2626.011215255235	4
0	7120	2626.922936032588	3
0	7126	2627.613532316958	2
0	7134	2631.364406020995	3
0	7135	2633.742926156917	2
0	7140	2634.409269391844	1
0	7146	2636.70773041724	2
0	7148	2637.624753452586	1
0	7154	2638.275594190147	2
0	7155	2638.874283079098	1
0	7159	2640.665935248311	2
0	7163	2641.696506787107	3
0	7165	2643.075865715228	4
0	7169	2648.827570249807	5
0	7170	2649.404715613814	4
0	7178	2652.235506492527	3
0	7183	2652.843255511476	2
0	7187	2654.05580967556	3
0	7191	2655.800065947314	4
0	7194	2656.940238816789	3
0	7200	2657.592179421312	4
0	7203	2658.983599478474	5
0	7206	2661.972758502986	4
0	7211	2663.592706955303	3
0	7219	2665.265261910702	2
0	7227	2666.701695557189	1
0	7232	2667.053587475154	0
0	7255	2675.012471880107	1
0	7257	2677.880260106152	0
0	7274	2681.144592596998	1
0	7280	2688.833001004695	2
0	7281	2689.960887148017	1
0	7287	2690.034753200544	0
0	7293	2690.60484219305	1
0	7298	2695.058199923689	0
0	7325	2703.64104535662	1
0	7328	2704.466332195919	0
0	7335	2704.857545118193	1
0	7336	2704.959184924887	0
0	7347	2705.826761813051	1
0	7348	2706.842271514799	0
0	7354	2707.564733996362	1
0	7355	2708.186837896608	0
0	7361	2708.363622294146	1
0	7363	2709.683864959974	2
0	7365	2709.937096349026	3
0	7368	2711.335461251633	2
0	7372	2712.462819704433	3
0	7375	2714.640688662315	2
0	7384	2719.11187060882	3
0	7387	2721.101002597135	2
0	7395	2725.026596755472	3
0	7400	2726.161075854143	2
0	7406	2728.80483126384	1
0	7412	2734.273742075024	2
0	7414	2734.923542000218	3
0	7415	2735.585441976128	2
0	7422	2738.505693886682	1
0	7427	2738.725822409463	0
0	7433	2739.102110288887	1
0	7434	2739.109143064318	0
0	7438	2741.024086246806	1
0	7443	2743.95843958907	0
0	7460	2749.111218186565	1
0	7463	2751.616862073755	0
0	7488	2755.977558259735	1
0	7489	2757.75297637183	0
0	7510	2761.813693724669	1
0	7513	2762.017287151248	0
0	7525	2765.261112303919	1
0	7526	2765.812050927619	0
0	7532	2768.039847016834	1
0	7534	2769.444750213186	0
0	7543	2770.216474872256	1
0	7546	2773.586934439083	0
0	7561	2781.847996781262	1
0	7562	2782.714887235173	0
0	7589	2792.985304802194	1
0	7592	2795.326160296717	0
0	7604	2798.663608748654	1
0	7605	2800.371422331665	0
0	7612	2801.702150521656	1
0	7617	2803.623635797259	0
0	7626	2806.985814873046	1
0	7629	2809.248818314386	0
0	7641	2811.41329746586	1
0	7646	2812.761613746725	2
0	7647	2813.033125776515	1
0	7660	2817.529018420603	0
0	7677	2824.564900960563	1
0	7678	2824.650335267073	0
0	7689	2828.270537279146	1
0	7690	2828.294840993877	0
0	7725	2848.356443334754	1
0	7727	2850.363189428777	2
0	7730	2852.992338636685	1
0	7736	2853.189650057837	2
0	7742	2856.920319443111	1
0	7747	2857.984367761596	0
0	7753	2858.366606123927	1
0	7755	2858.708478218968	2
0	7757	2858.99740222346	1
0	7763	2864.369390436451	2
0	7764	2864.542525980344	1
0	7770	2865.999069327633	2
0	7773	2873.209657970899	1
0	7780	2873.820257426971	2
0	7782	2874.11949710589	3
0	7783	2874.807012895224	2
0	7789	2876.064294367049	1
0	7795	2877.262453510415	0
0	7812	2886.519006534076	1
0	7815	2887.55777264646	0
0	7836	2895.087202349886	1
0	7840	2898.158044974373	0
0	7848	2898.616338544842	1
0	7849	2899.054922635626	0
0	7859	2900.313376079261	1
0	7860	2900.481268304149	0
0	7879	2903.24175100136	1
0	7881	2903.914807511057	2
0	7883	2904.362253116156	3
0	7884	2906.077048708968	2
0	7889	2906.758949280943	1
0	7895	2909.062985904308	0
0	7903	2910.489137515134	1
0	7907	2911.212475021925	0
0	7927	2921.68522985309	1
0	7929	2922.332548470615	2
0	7932	2924.033654777408	1
0	7937	2924.25736610518	0
0	7948	2929.796015670278	1
0	7955	2930.770389436659	0
0	7959	2930.995761639091	1
0	7962	2935.012300208259	0
0	7994	2952.9151209846	1
0	7998	2955.158994322168	2
0	7999	2955.719439717186	1
0	8004	2956.1163896252	0
0	8011	2957.810987051624	1
0	8013	2961.020383793287	0
0	8021	2962.486705756177	1
0	8023	2964.462490821473	2
0	8025	2964.668136132963	1
0	8031	2964.76024084813	2
0	8033	2965.256444898745	3
0	8035	2966.459386320983	2
0	8041	2966.68730060751	3
0	8046	2975.249608469257	2
0	8054	2979.986511759911	3
0	8057	2981.387544233422	2
0	8062	2981.925092811017	1
0	8067	2982.598614211174	0
0	8075	2985.070526676553	1
0	8078	2986.374683854075	0
0	8084	2986.723763477243	1
0	8087	2987.612480275942	2
0	8088	2987.753455575265	1
0	8097	2991.887976953176	2
0	8098	2991.971242210564	1
0	8103	2992.389118642491	0
0	8114	2994.03525215252	1
0	8115	2995.358496665834	0
0	8121	3000.335951997444	1
0	8124	3001.876038706487	0
0	8128	3002.068297659187	1
0	8130	3005.53906443112	2
0	8132	3006.03303000715	3
0	8138	3008.692768343902	2
0	8146	3009.863024445116	1
0	8152	3010.764377530819	2
0	8154	3013.953513889865	1
0	8160	3015.264138486563	0
0	8166	3016.242342653	1
0	8167	3016.711844867303	0
0	8179	3017.805504370142	1
0	8182	3021.563373945788	2
0	8183	3023.146015058224	1
0	8189	3025.688152343118	0
0	8203	3027.54706888896	1
0	8205	3030.916129311714	2
0	8207	3033.684412258909	3
0	8211	3035.062162496659	4
0	8214	3036.754546582122	3
0	8221	3038.351728603337	4
0	8222	3039.328286184581	3
0	8227	3040.9703385653	2
0	8233	3041.471224861261	1
0	8239	3041.509071534999	2
0	8244	3043.538488316527	1
0	8251	3045.051657047762	0
0	8259	3048.384412045132	1
0	8260	3048.794500777543	0
0	8280	3056.272642539995	1
0	8284	3057.089804966711	2
0	8285	3060.052357757436	1
0	8293	3062.744723856338	2
0	8297	3063.41708893582	3
0	8300	3065.342485775033	2
0	8308	3067.299696816686	1
0	8313	3068.140740457291	0
0	8348	3079.13011231984	1
0	8349	3080.340966458666	0
0	8355	3081.409196764547	1
0	8357	3081.985624995321	2
0	8358	3082.510927676183	1
0	8364	3082.573267988294	2
0	8365	3082.735383082763	1
0	8370	3087.199106271609	0
0	8384	3095.607302507422	1
0	8386	3096.836970386625	2
0	8389	3097.888820626825	1
0	8395	3097.926152033764	2
0	8397	3098.681897225064	1
0	8403	3099.096166105183	2
0	8405	3099.773452190956	3
0	8407	3100.354064444661	4
0	8410	3101.671359714183	5
0	8412	3103.623302748097	6
0	8414	3103.774295425735	7
0	8415	3104.289454469077	6
0	8422	3105.05312418548	7
0	8424	3105.486737188528	8
0	8426	3107.082778072051	9
0	8427	3107.154146722341	8
0	8434	3108.504717811313	9
0	8435	3108.94464310374	8
0	8441	3109.041077129604	9
0	8445	3110.222126958865	8
0	8452	3111.884646521492	7
0	8462	3116.342472094597	6
0	8469	3117.583491591228	7
0	8472	3119.037761084193	6
0	8477	3119.87690340171	5
0	8491	3125.642920911105	6
0	8493	3128.058370905904	7
0	8495	3128.0711970474	8
0	8496	3129.577215124662	7
0	8501	3130.327888846065	6
0	8508	3130.35017398859	7
0	8509	3131.988554668539	6
0	8519	3135.658980201256	5
0	8524	3136.471412439624	4
0	8530	3145.699862852745	3
0	8536	3145.971181729676	4
0	8539	3149.112758387485	3
0	8545	3150.259813717336	2
0	8550	3150.561728715436	1
0	8556	3150.833075425864	2
0	8557	3154.483800222674	1
0	8565	3155.875775999041	2
0	8567	3157.78820586007	1
0	8577	3160.568689750558	0
0	8585	3164.433269860488	1
0	8586	3164.900722349812	0
0	8605	3169.851006746775	1
0	8607	3170.572247966556	2
0	8609	3173.945125286587	3
0	8611	3176.392756664334	4
0	8615	3182.193327603393	5
0	8617	3183.334104053203	6
0	8619	3188.170125257329	7
0	8620	3188.247352569703	6
0	8626	3188.47194238152	7
0	8628	3189.509521704034	8
0	8631	3192.765139082449	7
0	8636	3193.195969115759	6
0	8642	3194.519181919895	7
0	8643	3195.190895845151	6
0	8649	3196.566869576187	7
0	8658	3204.487139341621	6
0	8664	3207.696046417376	5
0	8669	3210.499262056951	4
0	8674	3210.525614176433	3
0	8682	3215.726982693277	4
0	8685	3218.258865643691	3
0	8691	3218.511197670862	4
0	8692	3218.81096266896	3
0	8698	3221.550074634167	2
0	8703	3222.333885774137	1
0	8713	3223.29938806801	2
0	8716	3224.417914524162	3
0	8720	3226.029401284196	4
0	8721	3226.73499972637	3
0	8726	3226.751821659025	2
0	8732	3227.422465943971	1
0	8738	3227.710093850145	2
0	8741	3229.727252253828	1
0	8748	3230.348153860509	0
0	8758	3232.301762402268	1
0	8760	3232.815826313191	2
0	8761	3233.871844444587	1
0	8766	3236.913188003126	0
0	8777	3244.235231672337	1
0	8780	3248.614938033574	0
0	8786	3249.291336430139	1
0	8787	3249.940235493232	0
0	8795	3253.167149775279	1
0	8797	3254.780581886093	2
0	8802	3257.09495043792	1
0	8809	3259.501608674618	0
0	8821	3263.736175636189	1
0	8827	3268.533815243676	0
0	8836	3269.825124093244	1
0	8837	3270.576901429601	0
0	8846	3275.248519424329	1
0	8848	3275.350652976819	2
0	8850	3278.798540479511	3
0	8851	3282.12243616312	2
0	8859	3286.103333247748	1
0	8866	3286.58905276778	2
0	8867	3293.935346906675	1
0	8872	3294.206788998518	0
0	8888	3297.495562039737	1
0	8891	3298.163619221506	0
0	8903	3304.986902349771	1
0	8905	3305.160152241592	2
0	8907	3307.963274030921	3
0	8913	3309.396580398394	4
0	8916	3312.375594755159	3
0	8923	3313.708238228955	4
0	8924	3314.858825770338	3
0	8929	3315.386122234647	2
0	8934	3318.420091249913	1
0	8941	3319.207276179472	2
0	8942	3322.537024727524	1
0	8947	3323.336158387571	0
0	8974	3335.205651088462	1
0	8978	3337.239482404173	2
0	8979	3337.55813402193	1
0	8985	3338.183175424193	0
0	9013	3351.380308535681	1
0	9017	3353.109812621747	2
0	9018	3353.488359373118	1
0	9024	3355.380301855698	0
0	9034	3359.559532088493	1
0	9040	3362.110228500175	2
0	9041	3364.065622179823	1
0	9047	3364.519909024854	2
0	9050	3367.411148129853	1
0	9056	3367.640249554465	2
0	9059	3368.645722553339	1
0	9065	3369.166266797834	2
0	9067	3371.430937755015	1
0	9074	3374.195642141077	2
0	9076	3374.85513913761	1
0	9085	3375.961276406101	2
0	9087	3376.000215851313	3
0	9091	3377.341698729496	4
0	9093	3379.830077594841	3
0	9098	3380.729356719273	2
0	9108	3385.30977632622	1
0	9114	3388.709424647014	2
0	9115	3389.69716332842	1
0	9123	3390.816034341107	2
0	9126	3391.508397643901	1
0	9133	3393.619649390399	2
0	9134	3393.841042768062	1
0	9140	3393.943401202603	2
0	9143	3395.967841142879	1
0	9149	3396.004792641527	2
0	9151	3396.295822007961	3
0	9153	3399.330525614253	2
0	9158	3399.647510657575	1
0	9164	3400.467967767842	0
0	9180	3403.739779122038	1
0	9182	3404.380473196783	2
0	9184	3405.164947235916	3
0	9186	3405.52327158301	4
0	9190	3407.75686764876	5
0	9191	3408.292631034947	4
0	9196	3408.429370013988	3
0	9203	3411.128745988273	2
0	9208	3411.50085220142	1
0	9215	3412.991093301811	2
0	9217	3413.237940991701	3
0	9218	3414.174184361601	2
0	9224	3416.029826102817	3
0	9225	3416.774934294874	2
0	9238	3419.786383219084	3
0	9242	3420.993764923937	4
0	9245	3422.450359261459	3
0	9252	3423.808604128128	2
0	9258	3424.277209109178	3
0	9262	3425.618164108634	4
0	9263	3425.729142920216	3
0	9271	3429.143114344282	4
0	9272	3429.667404705489	3
0	9277	3434.907801360629	2
0	9287	3440.192896554928	3
0	9288	3441.051730706953	2
0	9296	3442.183022314189	3
0	9297	3444.117158122467	2
0	9302	3444.992658027946	1
0	9308	3447.987449293966	0
0	9326	3449.476235571725	1
0	9327	3450.703030907274	0
0	9334	3451.89918976617	1
0	9336	3453.82978386616	2
0	9338	3456.43008482683	1
0	9344	3460.610635967311	0
0	9350	3460.832221229185	1
0	9351	3462.53160005011	0
0	9373	3467.253670269327	1
0	9379	3471.822173372844	2
0	9384	3474.47729715201	1
0	9390	3474.539283468512	2
0	9391	3475.401516877929	1
0	9396	3477.500358025824	0
0	9400	3478.909948164312	1
0	9402	3479.650798185141	2
0	9406	3480.936274263405	3
0	9407	3481.954276086362	2
0	9412	3483.172006210984	1
0	9418	3485.655498335521	2
0	9420	3485.820828711331	3
0	9429	3492.203716167326	4
0	9434	3494.798113366661	5
0	9436	3497.801936484121	6
0	9442	3501.577331721065	7
0	9444	3503.016322281168	8
0	9445	3503.621493661048	7
0	9451	3503.722035845448	8
0	9453	3506.808709141493	7
0	9460	3508.667896497807	8
0	9462	3510.369756656064	9
0	9463	3511.524282073519	8
0	9468	3511.636503591117	7
0	9473	3511.929327924106	6
0	9480	3515.624692900456	7
0	9483	3515.958097477453	6
0	9488	3517.885581221383	5
0	9498	3521.295573314237	6
0	9500	3521.492661259037	7
0	9501	3526.730895448858	6
0	9506	3527.14289885087	5
0	9513	3528.096851898	4
0	9518	3531.30293160226	3
0	9524	3532.345502760472	4
0	9532	3534.602948791554	3
0	9539	3535.161319143499	2
0	9549	3540.334919381942	1
0	9554	3540.416536228667	0
0	9560	3541.199677112682	1
0	9567	3544.919111367007	2
0	9568	3545.913475931715	1
0	9574	3546.353184752564	2
0	9577	3547.46982018934	3
0	9580	3549.469265059433	4
0	9581	3551.220462249299	3
0	9588	3553.454563044703	2
0	9595	3554.944881799474	1
0	9599	3555.336813930188	2
0	9601	3555.946222031067	3
0	9604	3557.196387305429	2
0	9610	3559.467220273106	1
0	9615	3560.616156037925	0
0	9619	3560.736691704926	1
0	9625	3564.123346205482	2
0	9626	3565.345786803526	1
0	9635	3567.25532358734	0
0	9644	3569.782266549277	1
0	9645	3569.848041171553	0
0	9663	3572.207978776172	1
0	9664	3572.287979756936	0
0	9676	3577.509471244006	1
0	9681	3579.657010908254	0
0	9688	3580.568328474296	1
0	9689	3580.657016260222	0
0	9695	3581.668944877656	1
0	9700	3583.962603941275	0
0	9719	3592.229155222429	1
0	9723	3594.456231128863	2
0	9726	3596.507644543473	1
0	9733	3599.913948690755	2
0	9734	3601.47970599588	1
0	9739	3602.021634435063	0
0	9745	3603.192345269483	1
0	9748	3604.209521179129	0
0	9758	3606.659399198015	1
0	9759	3606.698567652592	0
0	9765	3606.809553703398	1
0	9770	3607.938092234883	0
0	9779	3610.136110078972	1
0	9781	3610.149098610286	2
0	9783	3610.293839962745	3
0	9785	3610.457754382074	4
0	9788	3611.246807481803	3
0	9793	3611.994615330605	2
0	9798	3612.171772842471	1
0	9802	3612.638452020868	2
0	9806	3617.993372339586	1
0	9815	3619.024873807649	2
0	9819	3620.092326422696	1
0	9824	3620.165449390584	0
0	9834	3623.093051344843	1
0	9835	3623.178567076031	0
0	9851	3624.309698165364	1
0	9856	3626.901235329928	0
0	9863	3628.73639441482	1
0	9869	3632.267488948441	2
0	9871	3633.270604192623	1
0	9878	3637.852728965131	2
0	9882	3640.010776288716	3
0	9885	3642.825274782739	2
0	9891	3643.623350780921	1
0	9897	3646.640609388781	0
0	9911	3654.536050074806	1
0	9918	3660.895980770964	0
0	9937	3671.933485406354	1
0	9938	3672.814303511738	0
0	9949	3675.335298576442	1
0	9950	3677.340988103092	0
0	9969	3681.294217509134	1
0	9970	3681.638936943686	0
0	9976	3681.715251012518	1
0	9978	3681.96785140529	2
0	9979	3682.063376769189	1
0	9984	3683.198625708873	0
0	9988	3683.450005621762	1
0	9996	3692.50377601495	0
0	10007	3693.56461415973	1
0	10011	3700.188119217961	0
0	10019	3702.849287492228	1
0	10021	3703.762316831138	2
0	10026	3707.260394719806	1
0	10035	3707.98734729707	2
0	10036	3710.04632561648	1
0	10041	3710.585073368464	0
0	10047	3711.605453340039	1
0	10049	3711.786551136642	2
0	10051	3713.333677426803	3
0	10054	3714.188081987243	2
0	10059	3714.590061926535	1
0	10065	3720.982046482338	2
0	10066	3722.242263551824	1
0	10078	3725.783626844854	2
0	10079	3726.028584001822	1
0	10084	3726.575195123114	0
0	10088	3728.428465832465	1
0	10090	3729.515045529776	2
0	10095	3730.197194151857	1
0	10099	3730.461235608679	2
0	10106	3736.488290756871	3
0	10110	3739.348680585248	4
0	10111	3739.703703583922	3
0	10118	3740.625384203748	4
0	10119	3742.407170955789	3
0	10125	3743.363719381675	4
0	10130	3747.378250003913	3
0	10136	3751.356143007073	2
0	10144	3752.436889192779	3
0	10146	3753.435768736351	4
0	10147	3753.907798787534	3
0	10153	3754.255779763088	2
0	10160	3755.261181022472	3
0	10162	3756.7823323081	4
0	10164	3758.737234684152	3
0	10169	3758.739335347089	2
0	10174	3759.778289637151	1
0	10180	3761.65123457867	0
0	10186	3761.899598397267	1
0	10187	3762.093234336787	0
0	10197	3763.26929282218	1
0	10199	3763.695076261845	2
0	10204	3770.066719069192	1
0	10211	3771.177868152416	2
0	10213	3771.845243529527	1
0	10219	3773.74608818014	0
0	10233	3779.419622806708	1
0	10234	3779.921031540406	0
0	10266	3787.744929500009	1
0	10270	3790.978521760246	2
0	10271	3792.793725692117	1
0	10277	3793.815187773704	2
0	10278	3794.610009639282	1
0	10287	3798.438136353946	0
0	10298	3798.988218982065	1
0	10303	3802.960721809429	0
0	10319	3806.856772634323	1
0	10322	3807.543976753079	0
0	10334	3812.952298071686	1
0	10335	3813.072119998372	0
0	10342	3814.262482080154	1
0	10344	3814.655496728339	0
0	10351	3817.318260979689	1
0	10352	3818.907218405736	0
0	10368	3821.548562329509	1
0	10370	3822.390595657636	2
0	10371	3823.483188660485	1
0	10377	3825.132926250061	0
0	10393	3827.880332780627	1
0	10395	3828.82616945235	0
0	10406	3831.266952742485	1
0	10407	3831.912428103722	0
0	10440	3843.133217358332	1
0	10444	3845.047392915524	2
0	10446	3845.089402183985	3
0	10448	3845.897747433494	4
0	10450	3848.291208477634	5
0	10451	3849.025191544872	4
0	10456	3849.643118694269	3
0	10462	3849.809840307311	4
0	10465	3852.180216692787	3
0	10472	3853.637864781403	2
0	10479	3854.403322431704	3
0	10481	3854.956958918682	4
0	10483	3854.968058118726	5
0	10484	3857.244015787117	4
0	10491	3857.762189440928	5
0	10492	3857.832279331599	4
0	10503	3860.942938699014	5
0	10505	3860.962057831358	6
0	10506	3861.969460944042	5
0	10512	3867.792684217325	4
0	10518	3868.04438413477	5
0	10519	3869.402981306379	4
0	10524	3870.204515571715	3
0	10528	3873.561911289524	4
0	10535	3882.283174931587	3
0	10540	3883.693719988719	2
0	10546	3884.05051589649	3
0	10548	3885.54893443185	2
0	10553	3886.105430309419	1
0	10559	3886.773604639022	2
0	10562	3887.891147202109	3
0	10563	3891.224524403421	2
0	10568	3892.226791583803	1
0	10575	3894.691927759877	2
0	10581	3896.078477409939	3
0	10582	3899.224957426429	2
0	10588	3901.406794486357	1
0	10597	3903.705076411725	2
0	10599	3904.637485864166	1
0	10604	3905.159608819226	0
0	10642	3929.316525063518	1
0	10645	3930.450409723166	0
0	10651	3933.325195464801	1
0	10654	3936.33538717297	2
0	10655	3938.624834439311	1
0	10661	3938.689213056548	2
0	10663	3938.946979338303	3
0	10667	3940.026684372357	4
0	10670	3940.988388454655	5
0	10671	3944.151839074562	4
0	10677	3946.279779865429	3
0	10683	3946.734241470411	4
0	10685	3947.899318152201	5
0	10687	3947.948460885012	6
0	10689	3948.875804859214	7
0	10692	3949.547300745745	8
0	10693	3952.19010325818	7
0	10701	3954.160660915122	8
0	10705	3957.1508173844	9
0	10706	3959.376542827836	8
0	10712	3959.670307556576	7
0	10718	3961.422436613592	8
0	10720	3962.488821730282	7
0	10726	3962.850024400475	8
0	10727	3963.013931123277	7
0	10732	3963.6435602937	6
0	10738	3964.485809141325	7
0	10743	3964.928527277946	8
0	10744	3965.122399874868	7
0	10750	3965.783513703127	8
0	10752	3965.882827072743	9
0	10756	3967.13407035716	10
0	10758	3968.848167335772	9
0	10769	3971.938101507963	10
0	10771	3972.47799156188	9
0	10778	3973.161773236625	10
0	10779	3973.811159505725	9
0	10784	3974.144181468442	8
0	10790	3974.321040295617	9
0	10791	3975.054237496048	8
0	10799	3976.164253923793	9
0	10800	3976.191980960075	8
0	10808	3977.829878477611	9
0	10810	3978.929006108985	10
0	10811	3978.933437964596	9
0	10817	3982.376661945345	8
0	10827	3984.268766807383	7
0	10833	3984.684459580677	8
0	10834	3984.738700103378	7
0	10840	3986.192277472938	8
0	10845	3990.040923810376	7
0	10851	3992.286764697604	8
0	10852	3992.938516418481	7
0	10864	4000.554564282788	8
0	10866	4002.84703232848	9
0	10867	4004.330402383058	8
0	10872	4005.176686457804	7
0	10878	4006.12648312891	6
0	10884	4006.68404575484	7
0	10887	4008.647367560278	6
0	10891	4009.135626268724	7
0	10895	4009.749037051584	8
0	10897	4012.584866899739	7
0	10902	4012.697769839761	6
0	10914	4018.119503255826	7
0	10915	4018.14677690981	6
0	10922	4018.189482851011	7
0	10924	4022.808400615006	8
0	10925	4023.655404947314	7
0	10932	4026.821162952013	8
0	10934	4027.16620939627	9
0	10936	4028.265809383102	10
0	10937	4028.905178262462	9
0	10943	4029.909550762301	10
0	10945	4030.114183198017	9
0	10952	4032.077621474761	8
0	10958	4034.598062941544	7
0	10963	4037.262624175967	6
0	10967	4037.601645388579	7
0	10969	4038.196383287702	8
0	10972	4041.754897353348	7
0	10976	4043.349115367743	8
0	10980	4045.463571681411	9
0	10982	4047.566128966961	8
0	10988	4048.396230339041	9
0	10989	4049.486986632051	8
0	10997	4052.071674944264	9
0	11001	4053.250006571852	10
0	11005	4054.896451006767	11
0	11009	4055.426913527297	12
0	11010	4055.955729723724	11
0	11016	4057.923643173071	12
0	11021	4060.015111944445	13
0	11023	4060.231127229684	14
0	11025	4061.093976320579	15
0	11026	4063.599404603425	14
0	11031	4064.31973859552	13
0	11038	4065.677469207405	14
0	11042	4067.000324552717	15
0	11043	4067.098469346801	14
0	11048	4067.233225875762	13
0	11055	4070.02691104085	12
0	11063	4073.795298301649	13
0	11066	4076.334976723565	12
0	11072	4078.926929065168	11
0	11079	4080.867197359135	10
0	11085	4081.501290200953	11
0	11088	4083.531228410048	10
0	11093	4085.174292463143	9
0	11097	4085.660716694167	10
0	11102	4091.174102705668	9
0	11106	4093.023172886073	10
0	11108	4093.731211938475	11
0	11110	4093.839554610591	12
0	11113	4094.593254562053	11
0	11117	4095.535146238508	12
0	11125	4099.505654791246	11
0	11131	4101.005361803256	10
0	11139	4103.487315166039	11
0	11144	4106.222899737938	10
0	11150	4107.361475217937	11
0	11153	4108.454799402308	12
0	11155	4109.713638064517	13
0	11157	4111.191313532241	14
0	11160	4111.622271903877	13
0	11166	4114.603840961219	12
0	11172	4116.28881756224	11
0	11177	4117.432468449899	10
0	11187	4120.106887928047	11
0	11188	4125.992045024015	10
0	11195	4127.557059514535	11
0	11196	4130.066428051012	10
0	11204	4131.71800032263	11
0	11205	4131.721922053105	10
0	11210	4132.769214883132	9
0	11217	4134.108149052312	8
0	11228	4135.81218140757	9
0	11232	4138.113253092152	10
0	11233	4138.267473626952	9
0	11238	4140.013542026668	8
0	11244	4140.675316666304	9
0	11245	4140.9208596795	8
0	11252	4141.817682439923	9
0	11256	4143.956595815988	10
0	11260	4147.184590614256	11
0	11261	4148.185115878292	10
0	11269	4148.797364725187	11
0	11272	4150.98893903087	12
0	11273	4151.033661210179	11
0	11278	4151.134231029745	10
0	11284	4152.685310040091	11
0	11288	4154.793650603463	12
0	11291	4158.308787732701	11
0	11295	4159.454119256994	12
0	11299	4162.247416327638	11
0	11310	4164.475409823361	10
0	11316	4165.958475373617	9
0	11321	4166.498339305267	8
0	11327	4167.055138124856	7
0	11333	4167.452608939187	8
0	11335	4168.194219276335	7
0	11340	4168.854483166241	6
0	11344	4169.046750305018	7
0	11351	4170.079089108962	8
0	11352	4170.083438704925	7
0	11358	4170.383645646534	6
0	11364	4170.703736407444	7
0	11365	4170.839096191405	6
0	11371	4171.776371853035	5
0	11380	4174.135778779185	4
0	11387	4180.061007102589	5
0	11388	4180.708646008768	4
0	11393	4181.859855640363	3
0	11402	4185.239614069452	4
0	11404	4186.067549305906	5
0	11406	4186.858648856365	6
0	11407	4188.042521352233	5
0	11415	4191.348808878906	6
0	11416	4192.678702032192	5
0	11423	4197.330054214091	6
0	11424	4197.768666994972	5
0	11429	4198.01211065155	4
0	11434	4198.791849965571	3
0	11438	4198.794643778828	4
0	11442	4200.666144249341	5
0	11443	4201.319449988787	4
0	11450	4202.298533003519	5
0	11453	4213.995969369137	4
0	11459	4214.479101221995	5
0	11464	4218.171033487936	4
0	11471	4226.124365917234	3
0	11475	4226.148282251866	4
0	11479	4230.29665387359	5
0	11483	4230.865944149611	4
0	11489	4231.874223096529	5
0	11490	4233.426456666225	4
0	11500	4237.629162444676	3
0	11506	4239.480920924556	2
0	11511	4241.242341925337	1
0	11519	4244.464461038601	2
0	11520	4246.557404031519	1
0	11531	4248.234328507447	2
0	11532	4248.342175658692	1
0	11538	4249.46065725542	2
0	11544	4251.465176847869	3
0	11546	4251.522257111751	4
0	11547	4252.284229032236	3
0	11553	4252.494690047677	4
0	11554	4254.877332288847	3
0	11564	4259.020052524992	4
0	11566	4259.183986470276	5
0	11567	4262.271545582617	4
0	11579	4266.160679534669	5
0	11580	4268.93607299049	4
0	11587	4274.587441371215	5
0	11589	4276.214370644591	6
0	11591	4279.802197840836	7
0	11593	4280.501065093999	8
0	11595	4280.564365458778	9
0	11596	4280.851235600607	8
0	11602	4284.977419733256	7
0	11613	4287.120467297424	8
0	11614	4287.176971454037	7
0	11620	4287.87933849879	8
0	11621	4288.863119783572	7
0	11626	4290.560331360368	6
0	11630	4291.460204531055	7
0	11632	4292.39360009514	8
0	11637	4293.154684141559	9
0	11638	4294.515484129185	8
0	11643	4295.88066268393	7
0	11647	4297.111147041849	8
0	11651	4298.752408810555	7
0	11658	4299.095786534248	8
0	11660	4301.34553047744	7
0	11666	4302.489362919764	6
0	11672	4304.371929037254	5
0	11679	4314.626936751622	6
0	11680	4316.116524499189	5
0	11685	4316.373080107231	4
0	11690	4317.864206640693	3
0	11697	4320.321951853818	2
0	11701	4321.000284825485	3
0	11704	4324.583124802125	2
0	11708	4325.037553731514	3
0	11711	4325.681797130046	2
0	11715	4327.43883034562	3
0	11720	4330.907126960091	2
0	11725	4332.778297475542	1
0	11732	4333.753538286238	0
0	11744	4335.851817195376	1
0	11745	4336.863169632127	0
0	11757	4339.432058234421	1
0	11759	4339.432348058536	2
0	11761	4339.537201841663	3
0	11762	4340.830532051332	2
0	11768	4341.916964506119	1
0	11775	4343.21431442646	0
0	11796	4348.029001349734	1
0	11798	4348.715722492212	2
0	11802	4349.713944963829	3
0	11803	4349.84763799818	2
0	11808	4350.413092184965	1
0	11816	4352.55799983837	2
0	11817	4352.809872270295	1
0	11824	4353.698322078428	2
0	11829	4355.731182960854	3
0	11833	4356.415721982214	2
0	11839	4358.475313437424	3
0	11841	4360.075436602215	4
0	11842	4360.716905671797	3
0	11848	4362.542881771804	2
0	11853	4362.607287473613	1
0	11858	4363.607164980569	0
0	11868	4368.050759319182	1
0	11869	4368.066304422342	0
0	11882	4371.068098942633	1
0	11883	4375.079092855537	0
0	11895	4376.335407275719	1
0	11896	4377.385658456471	0
0	11902	4377.770416497526	1
0	11906	4378.302823565207	0
0	11923	4386.513891853525	1
0	11926	4389.074433336742	0
0	11935	4390.938774068735	1
0	11936	4392.335255861878	0
0	11942	4392.418518097041	1
0	11944	4392.974969978501	2
0	11946	4396.224576525378	1
0	11952	4397.910407480992	0
0	11968	4400.81056908632	1
0	11969	4406.433657661471	0
0	11981	4408.712347132526	1
0	11983	4409.191679200894	2
0	11987	4410.816240969095	3
0	11988	4410.889230548796	2
0	11997	4413.720829097482	3
0	12000	4415.224287641985	4
0	12001	4415.383801129052	3
0	12009	4416.661200902916	2
0	12015	4416.83637887157	3
0	12020	4418.412952279097	2
0	12028	4419.38313799399	1
0	12033	4419.461406132303	0
0	12070	4433.676663206942	1
0	12074	4434.800758334405	2
0	12076	4437.912124057248	3
0	12077	4437.936139106358	2
0	12084	4441.545429000716	3
0	12085	4444.380474746495	2
0	12092	4444.650593108312	3
0	12094	4446.35727081015	4
0	12096	4446.794509351436	5
0	12098	4447.503245312651	6
0	12099	4448.204082037015	5
0	12105	4449.931690592008	4
0	12112	4453.119182083207	3
0	12118	4453.410657027348	4
0	12119	4454.933345102514	3
0	12126	4456.197963430264	4
0	12131	4463.877107202024	3
0	12136	4464.171796114563	2
0	12141	4464.616138445856	1
0	12146	4465.686272622443	0
0	12150	4468.237760876157	1
0	12155	4469.407423480901	0
0	12172	4471.504791633666	1
0	12176	4474.257070738184	2
0	12181	4477.284248687081	1
0	12186	4477.578014298708	0
0	12228	4492.013125451662	1
0	12233	4494.911360712746	0
0	12239	4495.31356274484	1
0	12240	4495.410656826628	0
0	12263	4504.269052585711	1
0	12265	4505.409725505692	2
0	12269	4506.723549906484	3
0	12270	4507.022918659113	2
0	12277	4508.426593651983	1
0	12285	4513.782581058729	0
0	12300	4517.347711654132	1
0	12302	4517.815362380587	2
0	12303	4518.635428981087	1
0	12310	4518.781135702141	2
0	12312	4519.20127480722	1
0	12317	4519.33168971342	0
0	12335	4521.599534861771	1
0	12339	4522.252619005746	2
0	12340	4523.405172375926	1
0	12347	4524.150901614167	0
0	12370	4530.552687395405	1
0	12372	4532.247645927293	2
0	12374	4539.617202202688	3
0	12375	4539.938202284219	2
0	12384	4543.183007495328	3
0	12385	4543.624079634919	2
0	12391	4545.555354492549	1
0	12398	4546.424984453499	0
0	12415	4553.838293566448	1
0	12416	4554.302524084057	0
0	12426	4561.085778839632	1
0	12434	4565.870285324764	2
0	12437	4566.829683238574	1
0	12443	4567.459007964736	0
0	12457	4572.079606904607	1
0	12458	4573.150445484895	0
0	12467	4573.305718464451	1
0	12469	4573.920751805832	2
0	12476	4579.123287982966	3
0	12478	4584.188260836748	4
0	12480	4584.700579277959	5
0	12483	4585.865297514744	4
0	12489	4587.383925165582	3
0	12496	4590.789978335081	2
0	12501	4590.916684588753	1
0	12508	4592.213736896342	0
0	12524	4595.802902173553	1
0	12526	4599.594309362472	2
0	12527	4599.955202937214	1
0	12533	4602.086074496203	0
0	12542	4603.48859124927	1
0	12545	4604.697104135443	0
0	12554	4606.225458003323	1
0	12562	4613.709695686848	0
0	12571	4615.642903289319	1
0	12576	4618.892945280608	2
0	12577	4619.28014239181	1
0	12581	4619.292970303965	2
0	12585	4619.875834511599	3
0	12589	4623.058786655191	2
0	12594	4623.377132709611	1
0	12599	4626.722192366909	0
0	12621	4634.459567619048	1
0	12623	4635.472391767	2
0	12624	4635.983784539843	1
0	12629	4636.191166646962	0
0	12648	4643.994990605996	1
0	12651	4644.959690040751	0
0	12660	4647.472956683006	1
0	12665	4649.4163882043	2
0	12667	4650.474033086829	3
0	12668	4652.917760591995	2
0	12677	4655.1098989642	3
0	12678	4655.528691670901	2
0	12684	4656.22913077769	1
0	12690	4658.436747081315	0
0	12696	4658.649528224892	1
0	12698	4660.029243812293	0
0	12742	4676.710738994146	1
0	12743	4676.861943020478	0
0	12778	4690.079428510859	1
0	12783	4691.641550435152	0
0	12802	4699.224914091982	1
0	12805	4699.906202913102	0
0	12814	4702.114731242209	1
0	12816	4703.691374840403	2
0	12817	4704.448644716925	1
0	12823	4705.027782456974	2
0	12824	4705.352207689606	1
0	12832	4707.232016858193	2
0	12833	4708.414501964412	1
0	12838	4710.526718403495	0
0	12850	4713.77695706113	1
0	12851	4714.375544536042	0
0	12863	4715.13753674349	1
0	12865	4715.681362722144	0
0	12884	4720.140679419721	1
0	12885	4720.387616427683	0
0	12907	4732.739778638056	1
0	12908	4733.785080953184	0
0	12925	4741.294662634116	1
0	12927	4742.694505232477	2
0	12932	4745.551144662173	1
0	12937	4745.594290283519	0
0	12956	4757.363222929827	1
0	12958	4758.021958730985	2
0	12963	4758.630567528442	3
0	12965	4758.772745032573	4
0	12968	4761.127426924001	3
0	12974	4762.857362527007	2
0	12985	4766.639825938092	1
0	12994	4769.945367785284	2
0	12995	4770.861494337662	1
0	13002	4772.841566262623	0
0	13008	4774.343096570282	1
0	13010	4775.345502020294	0
0	13016	4778.386266133652	1
0	13019	4780.858702877044	0
0	13025	4781.798951666682	1
0	13029	4785.131886736233	2
0	13031	4785.31835018748	3
0	13033	4788.052916631833	4
0	13034	4789.217546320795	3
0	13040	4790.979429837369	2
0	13046	4792.835059794523	1
0	13051	4793.53639503692	0
0	13094	4804.735236765118	1
0	13096	4805.11490256464	2
0	13101	4807.656842067284	1
0	13107	4809.671372696111	2
0	13110	4811.47728454968	3
0	13116	4814.157182898485	2
0	13121	4815.037079762903	1
0	13126	4815.37033978514	0
0	13142	4819.348129305648	1
0	13147	4826.134317360324	0
0	13166	4835.710651334812	1
0	13167	4836.813121955454	0
0	13214	4857.51436445754	1
0	13215	4857.632651798284	0
0	13246	4868.182759728498	1
0	13249	4870.875192181896	0
0	13261	4871.925383657162	1
0	13262	4872.958106896474	0
0	13268	4874.995795015056	1
0	13270	4876.330631446878	0
0	13283	4878.778978614591	1
0	13286	4880.602313160535	0
0	13292	4881.045358958217	1
0	13296	4882.052884821586	2
0	13300	4883.17038080208	3
0	13302	4884.585815087022	2
0	13307	4886.249057453537	1
0	13312	4887.511641326133	0
0	13318	4888.560859461412	1
0	13320	4888.715276804878	0
0	13334	4892.674601144769	1
0	13335	4893.534794726807	0
0	13343	4894.872327811833	1
0	13345	4895.090394857983	2
0	13347	4895.145679335866	3
0	13350	4895.322113364521	2
0	13356	4897.448667954369	1
0	13363	4898.996397546575	2
0	13367	4901.89062449302	3
0	13368	4905.191897017437	2
0	13377	4907.837246296485	3
0	13379	4907.870031361955	4
0	13380	4908.070421970779	3
0	13387	4908.295369854461	4
0	13388	4908.958441073094	3
0	13393	4908.968656659907	2
0	13400	4909.171616673434	3
0	13401	4910.104751993128	2
0	13407	4911.080868553743	3
0	13408	4912.78281849773	2
0	13412	4913.087239462279	3
0	13415	4915.325069157376	2
0	13424	4917.104502329911	3
0	13428	4920.714806602392	2
0	13435	4921.331645992824	3
0	13438	4927.211703443864	2
0	13445	4929.499047120074	3
0	13447	4931.550021442834	4
0	13448	4933.885373396649	3
0	13454	4935.094504119976	4
0	13456	4935.546286346423	5
0	13458	4935.609610356262	6
0	13459	4935.686369487507	5
0	13468	4937.737589816464	6
0	13470	4938.268915299125	7
0	13472	4939.81561912393	8
0	13473	4939.850055076232	7
0	13479	4940.493653448702	8
0	13482	4941.32217152792	7
0	13487	4941.397813587195	6
0	13493	4941.719895102096	5
0	13499	4942.087607441085	6
0	13506	4944.045607030542	7
0	13507	4945.017289923248	6
0	13514	4946.415308782634	7
0	13516	4947.942267610557	6
0	13521	4948.168188501037	5
0	13529	4949.091046321422	6
0	13532	4952.612686996803	5
0	13539	4954.257070140816	4
0	13545	4957.261213218507	3
0	13553	4959.486111743658	4
0	13555	4960.820285098876	5
0	13557	4962.42499263265	6
0	13558	4962.975121063533	5
0	13565	4963.634327335927	6
0	13567	4964.154124712988	7
0	13568	4965.578186817942	6
0	13575	4966.462533115633	7
0	13579	4966.932371333726	8
0	13580	4968.739357533502	7
0	13585	4972.469398088953	6
0	13592	4973.599937484808	7
0	13593	4974.857998288544	6
0	13599	4975.167083289835	7
0	13603	4976.66789845248	8
0	13605	4976.77803849935	9
0	13606	4977.533311198909	8
0	13613	4981.291836171536	7
0	13618	4981.387246322266	6
0	13623	4981.705948325952	5
0	13629	4982.841092790879	6
0	13631	4984.504717254095	5
0	13636	4985.927001172931	4
0	13640	4987.236596545676	5
0	13643	4989.09684958679	4
0	13648	4989.738669914864	3
0	13653	4993.230731170366	2
0	13665	4997.247898042623	3
0	13666	5000.010661638141	2
0	13679	5006.231363317615	3
0	13680	5007.253674251641	2
0	13685	5007.360949438818	1
0	13691	5009.06161722104	0
0	13697	5009.63319344778	1
0	13698	5009.949516798417	0
0	13719	5014.967026978056	1
0	13725	5017.519361220887	0
0	13731	5018.100383618154	1
0	13732	5018.697866190496	0
0	13738	5018.903154592049	1
0	13740	5019.997702651836	0
0	13755	5022.337429093056	1
0	13756	5022.763429398573	0
0	13762	5023.205354371738	1
0	13763	5023.284414694598	0
0	13778	5028.929522332269	1
0	13779	5029.323062576346	0
0	13785	5030.072418151396	1
0	13787	5031.110073281155	2
0	13789	5031.374556683683	3
0	13790	5031.517336464051	2
0	13799	5036.640496718477	1
0	13805	5038.935695803585	0
0	13811	5039.324794418551	1
0	13812	5039.770614245426	0
0	13824	5040.383106779432	1
0	13826	5040.734507200593	2
0	13829	5042.288537789935	3
0	13831	5042.978581364113	4
0	13833	5043.489585692473	5
0	13834	5044.53528777271	4
0	13840	5045.012197483233	3
0	13847	5048.602189067149	4
0	13848	5048.918886904843	3
0	13853	5048.92192512441	2
0	13858	5050.244655104431	1
0	13864	5051.99530850277	2
0	13866	5052.243493676386	1
0	13873	5054.309241046887	0
0	13879	5056.584486484969	1
0	13881	5057.907568819876	2
0	13882	5058.069565412419	1
0	13888	5059.05707539609	2
0	13896	5061.99127943011	3
0	13898	5064.745699031195	4
0	13899	5064.970868768946	3
0	13903	5066.309652462391	4
0	13907	5068.415417781814	5
0	13909	5068.481168008595	6
0	13910	5068.812209378748	5
0	13917	5070.468192413546	6
0	13918	5070.646997989933	5
0	13924	5071.374984881258	4
0	13929	5072.196383251216	3
0	13936	5075.543985691082	2
0	13943	5079.045154106596	1
0	13949	5079.478393885822	2
0	13952	5081.039473903673	1
0	13959	5081.779106549441	2
0	13961	5084.58072532013	1
0	13971	5088.494584157445	0
0	13985	5092.101659180165	1
0	13987	5093.267992836561	0
0	13996	5096.523167697303	1
0	13997	5098.507340944973	0
0	14013	5101.021679822459	1
0	14015	5101.11930376719	0
0	14054	5112.240227699023	1
0	14057	5114.873226294083	2
0	14059	5115.471225736702	3
0	14062	5117.364628432689	2
0	14068	5119.657437997081	1
0	14076	5120.392180737381	0
0	14087	5120.789579664806	1
0	14091	5122.388942249984	0
0	14097	5123.874172390346	1
0	14100	5126.871623776271	2
0	14102	5129.388315957844	3
0	14103	5133.20078313756	2
0	14113	5137.8249206264	1
0	14120	5138.413978907058	0
0	14132	5140.570354915446	1
0	14135	5140.975279238921	0
0	14154	5144.63831148799	1
0	14156	5144.866864170821	2
0	14158	5145.647717380248	3
0	14159	5145.870874376682	2
0	14164	5145.973980496339	1
0	14169	5146.926082794475	0
0	14188	5159.017997043302	1
0	14189	5159.089467879813	0
0	14226	5174.644444188371	1
0	14229	5175.603787199942	0
0	14253	5182.53302102097	1
0	14259	5185.539852355046	2
0	14261	5187.203836988636	3
0	14262	5187.470881924056	2
0	14267	5187.570695930807	1
0	14273	5189.346204074902	0
0	14279	5190.214695482875	1
0	14281	5190.279749685513	2
0	14284	5191.057836177524	1
0	14288	5193.37578336465	2
0	14290	5193.979726127622	3
0	14296	5196.493881073659	4
0	14297	5197.934327805442	3
0	14303	5198.611715701923	2
0	14308	5198.799451190847	1
0	14315	5199.229896616559	2
0	14317	5199.64307501468	3
0	14320	5202.998195959836	4
0	14321	5205.36820639891	3
0	14326	5206.122409327954	2
0	14331	5207.140220689266	1
0	14335	5208.395523360123	2
0	14337	5208.660385471448	3
0	14339	5208.925732710774	4
0	14343	5209.661697830421	3
0	14350	5210.641736460735	2
0	14355	5212.854226181099	1
0	14360	5214.902863937415	0
0	14378	5223.322333631731	1
0	14379	5224.034617154758	0
0	14386	5231.160627937127	1
0	14388	5231.212489060997	2
0	14390	5231.332568984544	3
0	14392	5231.800667217673	4
0	14393	5232.948084259914	3
0	14399	5235.032761311016	4
0	14400	5237.910693266339	3
0	14405	5239.111979051547	2
0	14411	5240.361542338899	3
0	14413	5241.064713725631	4
0	14415	5241.218986997833	5
0	14416	5241.552344659969	4
0	14420	5243.411757352615	5
0	14430	5246.053154861676	4
0	14436	5246.860404651424	3
0	14442	5247.538719385977	4
0	14443	5247.582320864604	3
0	14447	5248.395807201259	4
0	14456	5253.090248685453	3
0	14466	5257.288250633596	2
0	14472	5257.826348365923	3
0	14475	5259.724935400838	4
0	14479	5260.638981719982	5
0	14480	5260.816001397792	4
0	14485	5261.324879498126	3
0	14493	5264.008411734217	4
0	14494	5265.797925599117	3
0	14500	5266.805151867945	4
0	14501	5267.339581825623	3
0	14511	5270.006900858	2
0	14518	5270.478421402399	3
0	14520	5271.024158225745	2
0	14526	5273.476462149268	1
0	14533	5274.21746586198	2
0	14535	5274.540818865224	3
0	14537	5275.137829107276	4
0	14539	5276.49511365115	5
0	14540	5278.119273774321	4
0	14545	5278.14660690373	3
0	14554	5280.108512596703	4
0	14555	5280.376039213763	3
0	14560	5280.599143168706	2
0	14569	5284.481798296601	1
0	14574	5284.570633486774	0
0	14591	5286.089644598017	1
0	14593	5286.321479092302	2
0	14598	5286.784992306394	3
0	14599	5288.914048847627	2
0	14604	5289.361055326131	1
0	14612	5291.071898984398	2
0	14614	5292.261884365831	3
0	14615	5292.811095537353	2
0	14621	5294.541276072982	3
0	14622	5294.715898846074	2
0	14627	5295.164650156689	1
0	14632	5297.731032455966	0
0	14640	5301.538761942141	1
0	14642	5303.799267333387	2
0	14643	5306.886710341844	1
0	14648	5307.107707476418	0
0	14662	5308.614648304768	1
0	14665	5310.550555667155	2
0	14669	5313.052091901313	3
0	14670	5313.052568296239	2
0	14675	5313.913340799692	1
0	14681	5314.368786194775	0
0	14696	5316.178045442048	1
0	14697	5317.418397957749	0
0	14716	5324.580302464954	1
0	14717	5324.683381300465	0
0	14732	5328.80330107352	1
0	14736	5336.180045665584	0
0	14768	5342.121446765552	1
0	14769	5342.977657910331	0
0	14777	5344.84421869217	1
0	14779	5345.129687950418	0
0	14790	5345.889507606852	1
0	14791	5345.916581818259	0
0	14812	5356.808232264106	1
0	14813	5357.408329805317	0
0	14820	5361.197958157173	1
0	14822	5361.903328318698	2
0	14823	5362.413157800384	1
0	14828	5362.604704766477	0
0	14834	5362.837672770852	1
0	14835	5364.195976008459	0
0	14841	5367.630678890767	1
0	14846	5369.821013031411	0
0	14857	5370.951768918487	1
0	14862	5372.159024453619	0
0	14882	5380.708103423668	1
0	14887	5383.166649305273	0
0	14921	5400.929280889048	1
0	14923	5405.464032836199	2
0	14924	5406.488674466624	1
0	14930	5406.675449205952	0
0	14953	5411.978142983632	1
0	14957	5415.505377041094	0
0	14965	5418.679437402167	1
0	14967	5424.574189667259	2
0	14968	5425.114771568905	1
0	14974	5426.333855749354	0
0	14980	5426.761575702521	1
0	14981	5426.851223418633	0
0	14987	5427.129945449633	1
0	14994	5428.033420873164	2
0	14996	5428.898721729156	3
0	14998	5436.184099054784	4
0	14999	5436.978764476507	3
0	15005	5437.316935431738	2
0	15010	5438.310563445268	1
0	15018	5441.518599492524	2
0	15019	5442.01823511096	1
0	15028	5448.788961132796	0
0	15069	5462.520957975758	1
0	15071	5463.029893567304	2
0	15072	5463.679904207528	1
0	15077	5463.683200527752	0
0	15083	5465.337874409875	1
0	15085	5465.345844849994	2
0	15088	5466.144012041346	1
0	15092	5466.502284254152	2
0	15097	5470.659459854794	1
0	15102	5471.067112413956	0
0	15110	5471.705023956255	1
0	15111	5473.914305679112	0
0	15128	5476.650874958959	1
0	15130	5476.77091731504	2
0	15134	5477.914451105102	3
0	15139	5479.203675815763	2
0	15147	5480.801358969198	3
0	15148	5482.191885144092	2
0	15156	5485.410540366873	3
0	15162	5486.704926507671	4
0	15163	5487.749833985225	3
0	15169	5488.811500508545	2
0	15174	5490.26611534808	1
0	15180	5491.441153634384	2
0	15181	5494.614894433752	1
0	15185	5495.918369982489	2
0	15187	5496.968525694815	3
0	15189	5500.566260353252	4
0	15196	5507.40905480191	5
0	15197	5507.695442759062	4
0	15207	5510.073935664015	5
0	15209	5510.751383422252	6
0	15212	5511.715413372768	5
0	15217	5512.332822121163	4
0	15225	5512.904492899077	3
0	15230	5513.521979444896	2
0	15236	5515.264488363926	1
0	15242	5515.507231162362	2
0	15243	5516.288426060203	1
0	15247	5517.334981993944	2
0	15251	5518.748128636178	3
0	15254	5519.348049669188	2
0	15261	5519.62028926281	1
0	15267	5520.371094772822	0
0	15273	5520.486844682153	1
0	15276	5524.678499607653	0
0	15283	5526.895425160015	1
0	15285	5527.213160652203	2
0	15286	5528.416335646333	1
0	15293	5530.205319590399	0
0	15299	5530.801253623315	1
0	15303	5533.484995547918	0
0	15315	5539.55946287533	1
0	15318	5540.505964826221	0
0	15325	5544.750466027019	1
0	15326	5545.839308415455	0
0	15335	5548.150505709545	1
0	15336	5548.757777446135	0
0	15342	5549.41971522812	1
0	15344	5549.755105066242	2
0	15346	5551.498329920239	1
0	15352	5552.036123442933	0
0	15361	5553.555380184684	1
0	15364	5554.3644576752	0
0	15381	5555.565362276187	1
0	15382	5555.566498525734	0
0	15396	5565.088552642741	1
0	15399	5565.344758713293	0
0	15410	5566.710538598471	1
0	15414	5568.278593301114	2
0	15415	5571.245296081052	1
0	15422	5574.032310583489	0
0	15430	5575.45409841627	1
0	15434	5578.331271523421	0
0	15441	5578.947728141639	1
0	15445	5581.859838710446	2
0	15448	5584.443241248751	1
0	15454	5584.980260211228	2
0	15455	5585.151768153114	1
0	15460	5586.816815902759	0
0	15495	5598.04721017792	1
0	15496	5599.534280639757	0
0	15503	5602.632740543488	1
0	15504	5603.687638532506	0
0	15534	5612.44159725615	1
0	15535	5614.119219999295	0
0	15544	5615.806116151471	1
0	15545	5617.697727316333	0
0	15552	5618.527091750882	1
0	15554	5619.250818577757	2
0	15556	5621.163800135582	3
0	15560	5623.014227736973	4
0	15561	5623.099727299039	3
0	15568	5623.496339991677	2
0	15574	5627.169156768944	1
0	15582	5629.260008220754	2
0	15588	5632.435186613561	3
0	15589	5633.889192437669	2
0	15595	5635.250665175363	3
0	15597	5637.841977203064	2
0	15603	5638.810399524638	1
0	15609	5638.945564684178	0
0	15640	5651.199870211508	1
0	15642	5651.447511665166	2
0	15644	5651.931835047737	3
0	15648	5657.492377289244	4
0	15654	5661.146697114973	5
0	15655	5662.957793832317	4
0	15662	5664.427601580268	5
0	15665	5665.94486831434	4
0	15670	5667.461618463309	3
0	15676	5668.334738045039	4
0	15679	5670.938580782718	3
0	15684	5671.182989586804	2
0	15689	5671.405849540007	1
0	15696	5676.443889550481	0
0	15703	5677.76557226443	1
0	15705	5677.831594759604	2
0	15706	5680.130358826303	1
0	15711	5680.676034649675	0
0	15757	5701.960925840763	1
0	15759	5702.582733349437	2
0	15764	5707.934871230124	1
0	15770	5709.17191201082	2
0	15772	5710.69794196584	3
0	15774	5711.429715768716	2
0	15779	5711.491106520457	1
0	15785	5711.968560457423	2
0	15786	5712.168868415984	1
0	15790	5712.3853636518	2
0	15793	5714.441866467854	1
0	15797	5715.007455431183	2
0	15801	5715.623096351665	1
0	15807	5717.691823022906	0
0	15820	5720.889025645514	1
0	15822	5720.899538880251	2
0	15825	5723.701148265188	1
0	15830	5724.710036805328	0
0	15839	5726.554115575693	1
0	15843	5729.271575476961	2
0	15847	5730.478143223665	3
0	15848	5731.050759756679	2
0	15853	5732.446889698308	1
0	15858	5735.332397881317	0
0	15877	5740.847550259976	1
0	15881	5741.941211074121	2
0	15887	5743.977080614826	1
0	15896	5745.745298656591	0
0	15908	5747.974858408407	1
0	15909	5748.445441467957	0
0	15926	5752.768224737518	1
0	15927	5755.036122271048	0
0	15933	5755.811309966044	1
0	15934	5755.831738008274	0
0	15945	5757.971672042655	1
0	15947	5759.909650608392	0
0	15958	5761.738117300222	1
0	15961	5764.638493263893	0
0	15969	5766.637652609711	1
0	15973	5769.305924702213	2
0	15975	5769.545291135758	3
0	15978	5771.955192347087	2
0	15986	5777.111007197479	1
0	15991	5777.207988454679	0
0	16004	5779.230422680481	1
0	16006	5781.961746089587	2
0	16008	5782.285546148027	3
0	16009	5782.75144574643	2
0	16014	5782.792008744878	1
0	16021	5783.529441954556	2
0	16024	5785.643870337554	3
0	16025	5786.943789839732	2
0	16031	5788.111694035379	3
0	16033	5788.638313529445	2
0	16038	5789.888613833991	1
0	16044	5789.894556852613	2
0	16047	5791.220142656133	3
0	16048	5791.383907780399	2
0	16053	5792.158130979699	1
0	16061	5795.227555198209	2
0	16062	5795.96644743172	1
0	16075	5803.60772289098	0
0	16087	5807.537372379129	1
0	16088	5808.936539271824	0
0	16108	5814.952460511273	1
0	16109	5816.469427543106	0
0	16130	5822.658623266309	1
0	16132	5823.189289082175	2
0	16135	5824.838141636334	1
0	16149	5829.614820828505	2
0	16150	5830.287873854197	1
0	16156	5830.411278427599	2
0	16157	5830.83497136868	1
0	16164	5834.171177222768	2
0	16165	5834.324157013436	1
0	16171	5834.444845358402	2
0	16173	5834.838995007172	3
0	16175	5835.588892093683	4
0	16179	5837.221752629049	3
0	16185	5838.244198091401	2
0	16194	5841.485753713717	3
0	16195	5841.693109032964	2
0	16203	5843.5609006576	3
0	16207	5849.788946023176	4
0	16209	5854.409215768994	5
0	16210	5854.466864024403	4
0	16215	5854.767039700875	3
0	16220	5855.974472320516	2
0	16228	5863.005502321837	1
0	16233	5863.353168803036	0
0	16237	5866.478627141805	1
0	16240	5866.707672557347	0
0	16254	5874.694957229555	1
0	16257	5874.935916490927	2
0	16258	5875.352135253499	1
0	16263	5876.480616957973	0
0	16269	5876.97962141768	1
0	16271	5877.44084439403	0
0	16286	5879.801364465848	1
0	16288	5879.851986872948	2
0	16292	5880.417890762208	3
0	16295	5881.333698396405	4
0	16296	5885.852057945236	3
0	16302	5886.901206333077	4
0	16303	5888.020373150722	3
0	16308	5888.233720840447	2
0	16312	5889.224938458883	3
0	16315	5890.206680093017	2
0	16319	5890.935551222759	3
0	16324	5893.54524324768	2
0	16333	5895.715792157225	3
0	16334	5897.943923109578	2
0	16344	5899.595835386769	1
0	16349	5901.733723794604	0
[...]
4	72803	25523.96813249451	9222.5821620827
4	72808	25528.456891526314	9215.4464630123
4	72815	25530.038969657404	9208.6352827146
4	72827	25533.126892663302	9186.1470430298
4	72835	25536.875960436723	9187.6744050099
4	72844	25544.44818597295	9162.1684870665
4	72855	25546.78210764246	9159.3823967197
4	72869	25555.52591838198	9158.5241044106
4	72914	25571.816295772758	9173.5344743575
4	73011	25596.85504038815	9197.5735189363
4	73076	25613.412050584953	9206.879910152
4	73084	25615.613489551409	9207.329230229
4	73100	25620.874567109885	9196.2017792165
4	73115	25628.264259215799	9198.5245340496
4	73130	25636.250696571682	9206.2185789859
4	73151	25648.721561349986	9218.0708992171
4	73164	25654.173919831128	9196.4694489916
4	73181	25659.966684394677	9196.0786562872
4	73222	25676.642841005327	9212.1900739748
4	73256	25683.097684809411	9216.8242408086
4	73261	25683.216268735075	9213.384754993
4	73268	25686.878349823994	9214.3544850797
4	73282	25690.222858350502	9184.4645137283
4	73287	25692.069684394734	9185.477481755
4	73292	25694.127650622288	9186.9687020028
4	73299	25697.334670500561	9187.456414337
4	73363	25713.601522833076	9202.7276766717
4	73371	25720.079164164956	9201.4825273793
4	73589	25813.885534651446	9295.1215407886
4	73596	25817.364209726347	9291.094317262
4	73616	25821.257278944642	9278.4306103028
4	73623	25822.595982945902	9268.099681674
4	73631	25829.122977327725	9273.0254580398
4	73648	25836.473125497233	9277.8503805138
4	73740	25861.002462758776	9294.2318014791
4	73749	25863.484019588847	9292.9491891797
4	73792	25876.560365331305	9299.7954993689
4	73867	25900.45263858887	9307.7528272906
4	73873	25902.158823668032	9297.6566528499
4	73885	25905.286413136258	9249.6375812166
4	73910	25922.75322930477	9266.267342737
4	73925	25928.449870994097	9270.8366697122
4	73940	25931.851581479673	9266.7243434052
4	73993	25954.373688486285	9285.6306261879
4	74357	26080.569269232606	9411.4216428779
4	74368	26088.125947331684	9408.066224318
4	74379	26098.113753945533	9408.7192003885
4	74386	26099.730076822692	9397.5002402082
4	74404	26110.054018030881	9405.9011946226
4	74447	26123.104109407322	9416.7202503198
4	74458	26127.149888843631	9416.7412453011
4	74480	26133.194753492045	9422.7314347985
4	74519	26146.635724939719	9428.0702141974
4	74795	26248.194368537059	9525.0511880197
4	74805	26249.658957812514	9522.2594333829
4	74991	26322.22066229435	9577.0969272309
4	75072	26342.697965626724	9596.2449875643
4	75085	26346.444378302833	9592.1448273952
4	75090	26346.852266958064	9590.406924365
4	75095	26348.765223369006	9587.5940473957
4	75100	26351.836165792082	9586.3009258546
4	75107	26353.414510776349	9584.3597694816
4	75118	26360.099113189513	9589.5207574814
4	75133	26364.140486979525	9587.1594975515
4	75144	26367.903019350787	9589.1988026529
4	75180	26383.441661484108	9588.9290747641
4	75185	26384.858760604759	9587.5657720442
4	75190	26385.210631347219	9576.6496999049
4	75197	26387.222618825381	9578.078199179
4	75212	26395.673132338498	9586.1235678958
4	75217	26395.952747403627	9584.8308141062
4	75230	26400.250547772799	9585.3576198715
4	75461	26480.29417887956	9663.226078409
4	75482	26487.89104637876	9670.1296758963
4	75487	26488.009741279613	9662.7486350696
4	75494	26491.68780025976	9665.4307176899
4	75513	26496.303229804705	9663.9196461714
4	75524	26502.406037664896	9669.8292180746
4	75533	26506.726012165194	9658.2818594859
4	75540	26512.126402889554	9661.2541084472
4	75551	26518.856312639835	9657.4006078347
4	75572	26524.577366980244	9661.8143534478
4	75583	26530.170266041479	9663.5401290081
4	75611	26538.100442714332	9669.9603859174
4	75622	26540.058248916382	9645.6805228485
4	75692	26565.583871037573	9668.4304668857
4	75699	26566.41001212423	9662.1434220787
4	75706	26569.026074147464	9658.0400124211
4	75737	26582.644899235539	9669.9606435617
4	75751	26592.461840763137	9666.1562345426
4	75762	26594.092981453073	9664.4265689236
4	75781	26600.994746712791	9658.5752351016
4	75834	26615.448138023895	9672.4325530471
4	75841	26616.797661100868	9664.4580825151
4	75852	26622.303730250865	9662.5364315819
4	75859	26623.637990112917	9662.7008750526
4	75880	26636.151233086426	9675.0698112498
4	75932	26650.981527579029	9682.0307039375
4	75937	26651.604359207348	9677.3492507117
4	75946	26653.766150620474	9676.2134512459
4	75953	26657.073826488028	9665.6955659294
4	75958	26659.99762341837	9666.6996542482
4	75975	26666.3668003363	9667.7106638643
4	76087	26695.869881940748	9689.2963520403
4	76092	26697.203750983119	9689.2414841868
4	76099	26699.92930560193	9687.0779837989
4	76108	26707.659853274008	9693.1927582249
4	76123	26710.330320798084	9681.585426549
4	76133	26714.583636314919	9679.3797414286
4	76154	26717.500806188716	9677.9469302289
4	76159	26718.050795728047	9665.1731832928
4	76170	26720.488143618495	9663.5716121294
4	76189	26724.707937983209	9665.0187057669
4	76206	26726.845159383343	9661.150676559
4	76249	26741.823222124701	9657.2669133571
4	76332	26769.698258691972	9684.5503184265
4	76342	26773.038909687747	9681.028012678
4	76361	26781.215748916167	9685.9763488494
4	76395	26793.72357586139	9695.1375278564
4	76418	26804.241098406471	9687.6906539382
4	76434	26806.694190532393	9689.2485882453
4	76455	26810.326202466592	9685.3811980163
4	76477	26813.712298021339	9678.6654446326
4	76489	26816.324205093594	9677.5071976444
4	76500	26820.501004536833	9658.8720300581
4	76519	26827.917029898552	9665.1842094677
4	76535	26833.38813473638	9646.0508221045
4	76685	26885.552823298483	9688.5765569693
4	76698	26889.051273511011	9685.324296489
4	76705	26891.382822966964	9674.4763532057
4	76714	26894.239775053483	9677.0057173063
4	76749	26902.07802758049	9683.5471264922
4	76794	26914.49782108231	9692.3050757079
4	76799	26915.742075679515	9666.0453492718
4	76817	26924.768810031572	9649.3424689459
4	76859	26938.033499319769	9656.8260172379
4	76866	26940.308130895204	9656.9584172964
4	76873	26941.572007270134	9647.0751673915
4	76890	26953.686668272109	9651.2556155454
4	76953	26976.626487317791	9665.6647557637
4	76968	26983.222873387799	9651.1500704839
4	77077	27013.246740784593	9674.6634994618
4	77082	27015.339639808346	9660.8133045069
4	77091	27024.208608696946	9668.3076806434
4	77132	27037.365347310232	9671.5750359262
4	77158	27042.958201700284	9667.5082846188
4	77165	27045.143637628522	9669.1376755122
4	77174	27049.495394609991	9672.006366284
4	77197	27058.267041120813	9677.7534331453
4	77248	27071.708722800159	9684.0734133062
4	77329	27092.857596446636	9703.1510246461
4	77360	27099.182321960374	9707.9599841706
4	77365	27099.988652887745	9703.9154158855
4	77374	27103.513503277774	9704.7370811154
4	77400	27113.741099722723	9708.9678244962
4	77410	27114.262620603283	9707.9802923528
4	77417	27117.517542427453	9707.9515376953
4	77422	27117.596887854417	9701.1841575343
4	77431	27121.89205892268	9696.1064364524
4	77449	27128.807310031886	9700.3859930581
4	77460	27130.905251218307	9702.2682297988
4	77468	27131.601233526018	9701.8252179232
4	77499	27142.000281600241	9709.8496581001
4	77512	27146.193235634457	9712.1454400856
4	77523	27147.200562048453	9701.9494127822
4	77529	27148.943401010469	9694.0112100854
4	77536	27152.341823235213	9692.6902862927
4	77543	27155.492531753748	9688.9644393527
4	77568	27167.049719426968	9682.462120532
4	77643	27194.310523397504	9704.363350345
4	77648	27200.67797194747	9706.4632506785
4	77657	27206.019825128289	9711.1867224795
4	77672	27211.739471808242	9714.7067447328
4	77757	27239.885324073094	9741.4761919911
4	77768	27248.536987809734	9733.7084716083
4	77816	27267.534673943438	9742.7752267048
4	77850	27282.956693989612	9757.4518860743
4	77865	27290.256875699433	9753.2706202408
4	77890	27296.356860234628	9759.0950161711
4	77901	27298.398796010946	9759.7703082493
4	77912	27304.349319343838	9764.6841726625
4	77953	27314.613916376045	9767.1261177119
4	77961	27316.642776812382	9767.3165108805
4	77978	27320.27748920775	9766.0731872505
4	77994	27322.200612291976	9765.826994592
4	78005	27328.674862697431	9768.9369236888
4	78018	27334.822139926786	9769.9304729909
4	78042	27340.676222990287	9775.0420419755
4	78078	27353.115303676287	9780.4255767748
4	78083	27353.225074201868	9767.7585065682
4	78094	27359.685532635493	9764.5253777339
4	78110	27365.981758900575	9749.6742922497
4	78115	27367.450927486476	9750.0762465198
4	78121	27371.947481798656	9750.5143078841
4	78126	27373.136195669023	9748.1428175554
4	78133	27373.796936399183	9748.6406067457
4	78160	27385.163011272352	9742.5457837701
4	78205	27395.933393906029	9750.0128314098
4	78211	27397.218761278289	9736.5969334203
4	78218	27398.509500521777	9732.0920451383
4	78223	27399.816430587666	9723.1403270439
4	78228	27401.279368275735	9704.3300573161
4	78234	27403.508245512927	9700.623636011
4	78247	27414.691514200302	9709.1668249247
4	78306	27426.822269976215	9719.9786320058
4	78323	27438.996318088029	9730.7151422191
4	78407	27461.071898304126	9751.4010691459
4	78447	27472.731868862629	9758.7291670791
4	78474	27479.855325426888	9762.2736251043
4	78498	27488.394746603717	9768.4800255759
4	78505	27489.786329334808	9765.2153574484
4	78520	27497.492215204325	9771.7791286241
4	78530	27497.865858810584	9762.8960094906
4	78538	27501.979104246302	9755.0874008875
4	78551	27508.513929347847	9760.956095206
4	78592	27517.970129256716	9767.6073311882
4	78597	27522.02085205986	9748.8741210426
4	78608	27533.692816395066	9743.0041147766
4	78635	27541.478411575567	9750.2616347782
4	78654	27545.620345712842	9751.6935182964
4	78672	27553.90719104326	9754.3295386723
4	78689	27557.702133409111	9743.8727991527
4	78702	27564.457056740735	9747.2510132892
4	78714	27567.781981570378	9749.7898660436
4	78725	27571.346734693123	9739.3283402315
4	78769	27580.74053361871	9745.8994477059
4	78774	27581.29497282454	9744.0112575786
4	78779	27582.486540727092	9734.179227946
4	78784	27582.770564054696	9733.1668215623
4	78791	27582.890138371765	9726.0464757842
4	78811	27592.247108776568	9729.5025096994
4	78820	27593.814026726848	9719.8561516136
4	78832	27596.072288054463	9716.6157649183
4	78839	27598.251453919093	9711.6117592155
4	78857	27601.375938950441	9700.8858376523
4	78900	27618.288298062316	9712.5657277531
4	78909	27622.143684055874	9707.3513815333
4	78915	27624.950930464179	9698.1644992678
4	78932	27634.471920039715	9694.2036191329
4	78989	27652.779444043719	9710.3232902192
4	78996	27653.316533748267	9704.1914398925
4	79015	27660.746067751922	9709.1919230285
4	79203	27724.705443376659	9759.3280830365
4	79209	27725.289555743093	9758.9456338904
4	79228	27731.194570237385	9756.2187478507
4	79493	27808.934728328556	9827.1095597761
4	79506	27811.375542739323	9828.9958742542
4	79556	27829.131267573375	9845.1864416192
4	79577	27834.268996731217	9848.1545578755
4	79596	27842.664183697636	9853.5250030358
4	79688	27875.346527379256	9883.7275118293
4	79697	27881.079243218653	9887.2890942142
4	79702	27882.35326681494	9881.8571589478
4	79707	27883.742476566233	9883.2359628646
4	79714	27884.497856027228	9851.5874177305
4	79719	27887.25754629431	9848.4876929528
4	79724	27889.553252981743	9837.4795106759
4	79729	27891.67141320135	9821.6043779057
4	79740	27894.614438925426	9808.515033254
4	79745	27895.832576293908	9803.3782899909
4	79752	27899.375207388717	9805.6377558175
4	79770	27906.448324999966	9810.4358003207
4	79830	27925.863343809053	9822.1805901086
4	79835	27927.215295819338	9822.8672983009
4	79842	27929.217739799424	9823.9442771538
4	79864	27937.283968414802	9827.7747331284
4	79883	27942.248367766405	9824.7924756715
4	79891	27948.072676299841	9812.807998833
4	79898	27952.195566739497	9808.5952853182
4	79905	27957.840564743408	9813.4153839618
4	80032	28007.460822434246	9858.1073765522
4	80116	28040.128204148929	9887.3363682561
4	80125	28043.429446259524	9883.8914004559
4	80187	28061.954920878683	9900.9501419841
4	80194	28065.496733154282	9903.7664969227
4	80206	28072.707553154076	9910.0111556138
4	80232	28085.560984114321	9907.7386770361
4	80355	28127.467338993632	9947.4183904294
4	80360	28128.565090752062	9945.8369131845
4	80365	28132.308508356779	9943.5453579684
4	80383	28136.73658462643	9947.3986251944
4	80519	28179.654759302016	9972.6261604073
4	80524	28179.866024950795	9969.9535351376
4	80540	28186.169772389684	9973.2129542297
4	80557	28187.949830156427	9974.595271547
4	80563	28189.072646832089	9974.6278786963
4	80575	28191.611892688115	9962.3173911409
4	80632	28212.853321516356	9968.4320529445
4	80732	28238.791240988677	9991.7624889628
4	80742	28239.22830262789	9988.8196956131
4	80749	28242.153174474864	9986.8314304236
4	80755	28245.934311908723	9984.3687169354
4	80762	28249.906370633666	9982.3314833659
4	80776	28253.655039889986	9983.3258741439
4	80798	28259.942368938085	9974.2406401557
4	80849	28278.422033535388	9987.5554525636
4	80869	28283.247586203034	9978.8124864021
4	80884	28289.036026064425	9976.1654254633
4	80895	28291.883873651195	9977.3510510269
4	80902	28292.522444879681	9950.4379312927
4	80921	28297.127439739313	9946.7406429306
4	80953	28302.353333182515	9941.1828967567
4	80959	28303.926402350039	9933.5070474931
4	80968	28306.662351797076	9933.9335108873
4	80983	28309.088881265481	9929.4578788451
4	80990	28313.257587116092	9915.6035632006
4	81005	28319.880923707757	9906.2525035047
4	81089	28351.677966399197	9916.9906346537
4	81106	28362.49677433781	9927.1642383693
4	81151	28375.45989411851	9928.9448185311
4	81161	28377.121745132817	9927.4326090285
4	81167	28379.192681697905	9903.2599687569
4	81172	28379.587505144498	9893.8912548121
4	81177	28380.119933273559	9890.7298585599
4	81186	28383.641296323803	9891.6561242551
4	81197	28385.914723081101	9877.4259221988
4	81202	28386.602491714771	9872.0649989241
4	81213	28393.094912216472	9873.5608923652
4	81242	28399.886218715626	9877.4112472556
4	81254	28405.735406818233	9873.9222245787
4	81265	28410.001706728007	9867.6372452698
4	81289	28419.374767403511	9875.1507120835
4	81294	28421.471415037992	9876.5651799291
4	81303	28425.522864116921	9875.1408633261
4	81327	28430.814197058201	9873.5452805279
4	81354	28446.153142535984	9885.8731476978
4	81607	28540.033191150682	9975.7049670552
4	81614	28541.347278969954	9949.2345344048
4	81627	28545.641069487226	9949.6084342819
4	81701	28563.124907467172	9966.0698976151
4	81707	28565.011199423994	9965.3747838215
4	81716	28568.085124645248	9964.5300337637
4	81743	28582.664257010529	9972.5519996538
4	82015	28680.328060283846	10049.164304908
4	82025	28681.34703737407	10044.482282468
4	82039	28684.342747959831	10039.989158938
4	82063	28700.582081403693	10045.712358224
4	82138	28717.254654044285	10060.748078933
4	82143	28717.627400946206	10060.366511879
4	82149	28719.871402427392	10051.047263773
4	82162	28726.472094682855	10053.490166198
4	82181	28728.511193368601	10053.677637234
4	82197	28733.40188551293	10036.663146211
4	82216	28739.984036079902	10036.027449037
4	82229	28746.85695622651	10038.713497199
4	82268	28759.905754450935	10048.306525108
4	82281	28764.927058490967	10044.685824249
4	82286	28767.291708896198	10044.185756815
4	82301	28775.54646781442	10023.871794203
4	82338	28783.761821252678	10029.476543838
4	82343	28784.832889759852	10024.673526974
4	82360	28797.289217374269	10026.054144692
4	82422	28818.254155716568	10042.09848281
4	82428	28818.958991992352	10030.482930012
4	82433	28820.541999894921	10024.300514921
4	82440	28821.829292701637	10024.475852769
4	82467	28829.861283975785	10032.186045741
4	82514	28850.615472564203	10050.465342286
4	82521	28853.665201793792	10043.744833159
4	82586	28877.687824844311	10067.619623003
4	82594	28879.280829668743	10068.197133429
4	82600	28881.85484426524	10060.920879641
4	82613	28886.603868207689	10063.292778263
4	82628	28889.200483022293	10065.110104386
4	82654	28899.465298168163	10073.869988805
4	82740	28931.135046535703	10097.275309622
4	82752	28933.692253011295	10099.220273852
4	82838	28963.441510768901	10115.991663688
4	82869	28971.113005497235	10121.403053726
4	82898	28972.999668220608	10105.048483727
4	82903	28973.525617028763	10087.448815635
4	82916	28988.031926081897	10099.409954772
4	82935	28993.456809685877	10101.996617018
4	82942	28996.253395821359	10102.740962978
4	82951	28997.600537594292	10103.572740985
4	83008	29017.270299865343	10118.672919391
4	83015	29021.796059513129	10113.9327331
4	83033	29027.006736152287	10118.754559636
4	83051	29037.288704625794	10128.998377845
4	83194	29087.169946482797	10169.761596025
4	83291	29115.50252963359	10186.751163863
4	83310	29118.859686716907	10187.396570589
4	83317	29120.110737571497	10185.603762455
4	83324	29121.122153542346	10180.751456948
4	83373	29139.943284918976	10188.236004578
4	83439	29167.704840565455	10215.151453349
4	83444	29167.764724270366	10206.758502347
4	83449	29170.639963046739	10196.637896638
4	83456	29173.571838656337	10197.750406177
4	83468	29176.449940496029	10194.369820723
4	83481	29179.239462493982	10196.684553026
4	83492	29185.008203685639	10186.707765992
4	83507	29187.320551372312	10188.217762174
4	83520	29191.137339055956	10189.998818522
4	83546	29195.200571305791	10191.578666982
4	83552	29198.246998164968	10166.770485905
4	83557	29199.52307865552	10163.758770292
4	83564	29204.818449504492	10164.057765204
4	83714	29269.969035937223	10225.948432812
4	83897	29339.33963987869	10292.32888503
4	83908	29342.261462786009	10283.7413101
4	83918	29346.315351260999	10287.44430307
4	83929	29347.128416920135	10286.388661792
4	83936	29351.126520249135	10289.524096138
4	83951	29356.121715385418	10289.395389526
4	83981	29361.611043214733	10283.377818575
4	83990	29367.678320140468	10288.757616989
4	84011	29373.341570175396	10293.419165304
4	84097	29408.275344703381	10326.353025435
4	84168	29431.834455375383	10345.299092438
4	84175	29434.481921696203	10337.81438827
4	84186	29439.114493852818	10336.916192847
4	84199	29446.110278008465	10335.251152394
4	84223	29462.187943427375	10351.310749645
4	84232	29464.942880041072	10353.499084786
4	84240	29467.509796795473	10354.125834717
4	84250	29468.431358591023	10351.003881314
4	84260	29471.010053856902	10351.978722153
4	84281	29482.596044067232	10357.735763689
4	84298	29486.533267022572	10354.919745317
4	84311	29500.079272230294	10364.38162884
4	84433	29539.172226988237	10403.158222213
4	84450	29547.025647301204	10410.629002201
4	84512	29579.873612822405	10437.221590051
4	84527	29586.529305024662	10437.816446688
4	84534	29588.521297888269	10434.340624945
4	84550	29591.520030395906	10429.057392603
4	84563	29594.802483917119	10430.120629655
4	84594	29606.738844793348	10434.124188815
4	84622	29614.889482659714	10420.05431551
4	84636	29619.930784456477	10425.040111864
4	84689	29639.925875491791	10443.418058937
4	84695	29641.715257607613	10435.465576777
4	84701	29643.149853839417	10434.262043802
4	84706	29643.39996064423	10430.959893998
4	84713	29644.2142145318	10428.346729007
4	84727	29652.954616653584	10435.770805277
4	84734	29656.621049016825	10431.695673415
4	84739	29659.37139970353	10433.070098049
4	84744	29660.877971147397	10423.274642804
4	84750	29668.116552362491	10428.965503605
4	84760	29670.345419036395	10431.000979037
4	84788	29686.247981738654	10442.060988865
4	84793	29687.25247294761	10437.514119807
4	84804	29693.018469042956	10441.086460796
4	84940	29758.29382369421	10504.497963672
4	84949	29761.100758684022	10503.713771377
4	84968	29769.774030243913	10511.393245037
4	85010	29786.131433278673	10514.931059613
4	85034	29795.403420700351	10517.10973083
4	85054	29802.492155058961	10523.053534615
4	85081	29807.916871756336	10521.781413994
4	85090	29809.950912901329	10519.644230372
4	85123	29817.626416683058	10523.294124089
4	85130	29821.415800867932	10525.41332464
4	85204	29852.785670825954	10555.868111687
4	85215	29854.361720030796	10553.980594673
4	85226	29857.136737151462	10553.084569515
4	85253	29864.297696731669	10530.009234977
4	85263	29866.467478029471	10518.46112087
4	85287	29869.336071171903	10520.361975155
4	85294	29870.545012879387	10510.467349662
4	85309	29873.795825087014	10512.619728127
4	85424	29914.51550153303	10552.251295651
4	85437	29923.269445430562	10558.556565651
4	85628	29996.308168501111	10625.415550588
4	85633	29997.353363747859	10625.28997109

