version 2
run Third-n3-18-20191016-17:05:07-668
attr configname Third-n3
attr datetime 20191016-17:05:07
attr experiment Third-n3
attr inifile omnetpp.ini
attr iterationvars ""
attr iterationvarsf ""
attr measurement ""
attr network org.omnetpp.queueing.Pizza
attr processid 668
attr repetition 18
attr replication ""
attr resultdir results
attr runnumber 18
attr seedset 18
param **.PS.maxInventoriedPS 3
param **.U1.interArrivalTime exponential(4s)
param **.U2.interArrivalTime exponential(6s)
param **.PS.serviceTimeForInventoryU1 exponential(1.4s)
param **.PS.serviceTimeForInventoryU2 exponential(1.4s)
param **.PS.serviceTimeDirectU1 exponential(1.8s)
param **.PS.serviceTimeDirectU2 exponential(1.8s)
param **.PS.probabilityProducing 0.8
param **.CS.serviceTimeU1 exponential(2.3s)
param **.CS.serviceTimeU2 exponential(2.3s)

vector 0 Pizza.EntryQueueU1 queueLength:vector ETV
attr interpolationmode sample-hold
attr title "queue length, vector"
vector 1 Pizza.CS queueLength:vector ETV
attr interpolationmode sample-hold
attr title "queue length, vector"
vector 2 Pizza.EntryQueueU2 queueLength:vector ETV
attr interpolationmode sample-hold
attr title "queue length, vector"
vector 3 Pizza.sink lifeTime:vector ETV
attr interpolationmode none
attr title "lifetime of arrived jobs, vector"
attr unit s
vector 4 Pizza.sink lifeTimeU2:vector ETV
attr interpolationmode none
attr title "lifetime of arrived jobs, vector"
attr unit s
vector 5 Pizza.sink lifeTimeU1:vector ETV
attr interpolationmode none
attr title "lifetime of arrived jobs, vector"
attr unit s
0	0	0	0
0	17	5.116053541883	1
0	21	7.342774285581	2
0	22	7.383017765291	1
0	27	8.333070114209	0
0	49	14.921397937876	1
0	52	16.548134460433	0
0	59	18.160601728862	1
0	60	18.241007979793	0
0	80	24.889667167043	1
0	81	25.644050497305	0
0	97	30.844795470392	1
0	100	33.40081282163	0
0	113	37.26254756879	1
0	118	39.480213128227	0
0	144	45.342369341566	1
0	146	46.326543983432	2
0	159	47.306667482945	3
0	161	48.919763859465	4
0	163	53.54511441958	5
0	166	56.811637065993	4
0	172	57.732820753045	3
0	177	59.015894949244	2
0	184	59.438800541824	3
0	190	65.166946280666	4
0	192	66.376655222073	5
0	195	69.147837105633	4
0	200	69.183417522976	3
0	205	69.266239403878	2
0	210	69.83264986666	1
0	216	71.089205814613	2
0	218	71.672240448459	3
0	220	72.870197225663	2
0	226	73.238633517613	1
0	233	74.461462656124	2
0	234	75.70531926797	1
0	240	79.163222619478	2
0	241	80.835500528896	1
0	246	82.484841120879	0
0	258	84.619492978716	1
0	260	84.89792215342	0
0	272	86.350345475774	1
0	273	86.965476505651	0
0	280	89.122303515111	1
0	281	90.39573371959	0
0	288	92.53943337243	1
0	289	92.868404414487	0
0	297	95.614927656628	1
0	299	96.384860442472	2
0	303	99.485284868324	3
0	304	100.556182324189	2
0	310	104.24036257228	1
0	315	106.367230900945	0
0	336	109.544085894051	1
0	339	109.926654877032	0
0	346	110.932045786947	1
0	347	111.454042936108	0
0	372	120.226995232474	1
0	374	120.833257615176	2
0	375	121.101656028904	1
0	380	121.203390987806	0
0	402	126.320551831685	1
0	404	126.464399707772	2
0	405	127.290037268298	1
0	412	130.776660469882	0
0	419	132.32369883774	1
0	423	136.132283609729	2
0	424	140.398753837753	1
0	430	141.989760792198	0
0	453	148.882542377447	1
0	455	149.259508010864	0
0	462	149.461083182733	1
0	464	152.754638765197	0
0	487	154.866509555215	1
0	493	163.352724696523	2
0	494	163.984356300812	1
0	500	165.654189396172	0
0	524	174.482913661334	1
0	525	175.717345411506	0
0	531	176.233384040373	1
0	533	177.937273808685	0
0	550	181.611456826997	1
0	551	181.925212037345	0
0	592	204.791338581368	1
0	594	205.184706224715	2
0	598	206.222693803576	3
0	601	207.958878819706	2
0	607	209.229396384855	3
0	608	209.569033487475	2
0	614	209.72094760505	3
0	615	209.86150448744	2
0	622	211.515484435925	1
0	632	213.79128723138	0
0	648	215.392828475133	1
0	657	221.739958888611	0
0	693	229.263467768447	1
0	694	230.999107422326	0
0	701	231.079049642146	1
0	702	231.288529348795	0
0	712	234.48403312387	1
0	714	234.830395315384	2
0	715	236.136739170343	1
0	721	237.739555905513	2
0	723	238.754007880342	3
0	724	239.464595183313	2
0	729	239.647243505893	1
0	733	239.733451856097	2
0	738	240.610972266562	1
0	743	241.889308451146	0
0	760	245.888016058941	1
0	761	246.172303269107	0
0	772	250.444978030172	1
0	776	253.315623417615	0
0	782	253.774792044949	1
0	783	254.189260996989	0
0	793	260.785090767595	1
0	795	262.577024885352	2
0	796	263.144482914383	1
0	804	267.933110191393	0
0	813	269.900969442054	1
0	814	269.961300846982	0
0	825	271.179631594361	1
0	829	271.498173809941	0
0	855	280.346599130246	1
0	858	280.626107599292	0
0	873	283.78314944518	1
0	876	285.959176020526	0
0	884	287.227193107094	1
0	887	288.877706952612	2
0	888	289.255225953759	1
0	893	289.349607337084	0
0	901	291.310652948028	1
0	902	295.999750166717	0
0	908	296.467388337194	1
0	911	297.388934258082	2
0	913	297.922212378626	3
0	917	299.080345858419	4
0	918	299.956085850494	3
0	926	301.355728589302	2
0	933	302.76787103516	1
0	940	306.368539233034	0
0	955	310.275090113789	1
0	960	312.718525988182	0
0	982	321.249624013794	1
0	983	321.619218834391	0
0	995	322.920047062623	1
0	996	323.134023493766	0
0	1002	326.237941786689	1
0	1003	326.438803628303	0
0	1014	328.535511626709	1
0	1017	329.280538978155	0
0	1023	332.458822879461	1
0	1029	339.323244343352	0
0	1041	341.302353200874	1
0	1045	344.073947148937	0
0	1052	347.74091572919	1
0	1055	351.358659189436	0
0	1079	358.56437283464	1
0	1081	359.33256971483	2
0	1082	360.46220749368	1
0	1090	361.874093854264	2
0	1092	364.402742536861	1
0	1100	365.181370988166	0
0	1110	367.222659894676	1
0	1114	368.923533146318	2
0	1116	369.302476112683	3
0	1117	369.436431408275	2
0	1122	369.463603514041	1
0	1129	370.873786989275	0
0	1140	373.965725604904	1
0	1143	376.240196458635	2
0	1144	377.14177545003	1
0	1152	379.773163347257	2
0	1153	379.995049597219	1
0	1161	380.98258070203	2
0	1163	382.601251396044	3
0	1166	383.849880787923	2
0	1174	384.014436491316	3
0	1177	385.406081940556	4
0	1178	386.161086540645	3
0	1186	388.05699652957	2
0	1192	388.085030916968	3
0	1193	388.755009851383	2
0	1204	390.432065538045	3
0	1207	391.209456946429	4
0	1216	393.009308179907	3
0	1222	393.614375367198	4
0	1226	395.079381552715	3
0	1231	395.455889345408	2
0	1236	395.766864504863	1
0	1242	395.821699743767	2
0	1243	395.921384797528	1
0	1251	398.900905408035	0
0	1278	405.452966575964	1
0	1280	407.237577060812	2
0	1281	407.384360958646	1
0	1289	410.997251474319	0
0	1296	414.019471735443	1
0	1297	415.255552075438	0
0	1306	416.347203598483	1
0	1307	417.828785691862	0
0	1313	418.684728098926	1
0	1314	418.730954018078	0
0	1320	419.513142151051	1
0	1323	420.31641215184	0
0	1351	426.726183867233	1
0	1353	426.84913161213	2
0	1354	427.323502993009	1
0	1361	429.271426507138	0
0	1372	432.451833213287	1
0	1376	434.382745416618	0
0	1383	437.790650998132	1
0	1385	438.208728543297	2
0	1387	438.437610951475	3
0	1390	443.640578602711	2
0	1396	445.678456926135	1
0	1404	446.159257362686	0
0	1421	449.577473276595	1
0	1424	450.133842868476	0
0	1430	450.432959581114	1
0	1432	450.504172273285	2
0	1433	452.132552604922	1
0	1438	452.144353225835	0
0	1444	452.723354293647	1
0	1445	453.461911704826	0
0	1458	455.377375238113	1
0	1460	456.174476431072	0
0	1471	458.248112365593	1
0	1473	459.308049169017	2
0	1477	460.939797754433	1
0	1485	462.797263564607	0
0	1507	465.363954257093	1
0	1508	466.644422712469	0
0	1524	470.002419493895	1
0	1528	472.783555664516	2
0	1530	474.941377093573	3
0	1531	475.663097738553	2
0	1537	476.813549994591	3
0	1539	477.008487864904	4
0	1547	479.258236952463	5
0	1548	479.47859521993	4
0	1554	480.328968991658	3
0	1559	481.253285400868	2
0	1565	481.529794965556	3
0	1568	482.136248818121	2
0	1573	484.506889938731	1
0	1577	484.739389029363	2
0	1581	485.430021585789	3
0	1583	487.959562997062	2
0	1589	488.888568452188	1
0	1594	491.032223673116	0
0	1600	495.512626429938	1
0	1607	497.758629117097	2
0	1609	498.466470725739	3
0	1611	499.134940648368	4
0	1615	503.851162417589	5
0	1619	504.866476864119	6
0	1620	506.43531067731	5
0	1626	513.271814235956	4
0	1632	516.741325455173	5
0	1633	518.237768090429	4
0	1639	518.514304852398	5
0	1642	519.237660319476	4
0	1650	519.618604765021	5
0	1653	520.925878995931	4
0	1660	522.518730491487	3
0	1665	522.680704150223	2
0	1673	524.505784020022	3
0	1675	527.895165423601	4
0	1677	531.239318231638	5
0	1678	531.542519686278	4
0	1684	532.327557661358	3
0	1690	533.509464242008	2
0	1695	534.617103592427	1
0	1701	534.860170548331	2
0	1703	537.293921356527	1
0	1712	537.895720319078	2
0	1714	539.879549986428	1
0	1719	539.990476877035	0
0	1725	541.136844661106	1
0	1726	541.39591323714	0
0	1742	544.382187874264	1
0	1744	544.720283225702	2
0	1745	544.933270401507	1
0	1749	545.389537726485	2
0	1758	548.295618167384	1
0	1767	550.827057920371	0
0	1780	553.906350489322	1
0	1782	554.485691905743	2
0	1783	555.088784249046	1
0	1790	557.124659583238	0
0	1804	559.468701787042	1
0	1805	560.398299639864	0
0	1823	564.476778658354	1
0	1826	566.33943939058	2
0	1828	568.924139102306	3
0	1829	569.164996075401	2
0	1837	575.583725888597	1
0	1842	575.588211424763	0
0	1865	585.199371902202	1
0	1867	586.40095524156	2
0	1868	587.083355441364	1
0	1873	587.260445675506	0
0	1879	588.053063291805	1
0	1881	588.48379574145	2
0	1884	592.469756770286	1
0	1891	594.665568172632	0
0	1913	604.702969637232	1
0	1914	604.735923499929	0
0	1920	606.918917937942	1
0	1922	608.08775785518	2
0	1923	609.00832239821	1
0	1930	610.126975551012	0
0	1942	610.672370557336	1
0	1944	611.011370301708	2
0	1947	612.151516768504	1
0	1952	612.297324827977	0
0	1958	612.367602897552	1
0	1961	613.791994210652	2
0	1971	621.316848692262	1
0	1976	623.324237471681	0
0	1994	624.752759576777	1
0	1996	626.027805210526	2
0	1997	627.952113590371	1
0	2003	628.282360437559	2
0	2006	628.60942372066	1
0	2011	629.307239254058	0
0	2017	629.556906775563	1
0	2021	631.925635267815	0
0	2039	636.786661456242	1
0	2043	642.422682631503	2
0	2044	643.902699252861	1
0	2049	645.309234782985	0
0	2069	651.627756374769	1
0	2070	651.863386509823	0
0	2080	656.061706649224	1
0	2084	657.738173066982	2
0	2086	659.918568497949	3
0	2089	661.89281094776	2
0	2094	661.994011042402	1
0	2101	663.450470040446	0
0	2108	664.886958998928	1
0	2112	666.872535419051	2
0	2113	667.24627682959	1
0	2118	667.348950022681	0
0	2124	668.660063358334	1
0	2130	673.458886588293	2
0	2132	676.704058380747	1
0	2138	677.185718049672	2
0	2140	678.042367534534	3
0	2143	678.44253176489	4
0	2144	679.384281814303	3
0	2150	679.948940211432	2
0	2159	685.094142959413	3
0	2160	686.65899823676	2
0	2165	687.071125380262	1
0	2172	688.139293029454	0
0	2178	689.122535343863	1
0	2180	691.701195681153	2
0	2181	692.309096246648	1
0	2187	693.512942966249	0
0	2193	694.038709091628	1
0	2194	694.612854854292	0
0	2202	696.411824521126	1
0	2207	698.344357483669	2
0	2208	699.688795507287	1
0	2213	701.006745799771	0
0	2217	702.221286261946	1
0	2219	704.56582719684	2
0	2223	705.498220973723	3
0	2226	705.765511630164	2
0	2239	711.704138794665	1
0	2249	720.648784345075	0
0	2287	725.81402524561	1
0	2291	730.509499396102	0
0	2317	738.730159588102	1
0	2319	742.411190063266	2
0	2320	742.572008939692	1
0	2326	743.704679838743	0
0	2335	744.361526887188	1
0	2341	745.943795305949	0
0	2360	755.428219923014	1
0	2361	756.183034365537	0
0	2376	763.506019041231	1
0	2381	766.176854145167	2
0	2382	767.298939968823	1
0	2387	768.125930490275	0
0	2408	775.921317739645	1
0	2410	779.626582158538	2
0	2414	786.475901382958	3
0	2416	788.956421254944	4
0	2417	789.048363934391	3
0	2423	789.667227076755	4
0	2427	791.284791766448	3
0	2432	791.99457530617	2
0	2438	792.214380800188	1
0	2444	792.864632882336	0
0	2450	793.035203323399	1
0	2452	794.458458195228	0
0	2461	796.115077117681	1
0	2464	797.636302438232	2
0	2466	798.888570770928	3
0	2467	799.220180568105	2
0	2474	800.585069793595	3
0	2475	800.962020347465	2
0	2481	802.940124921001	1
0	2486	803.20672762457	0
0	2508	809.39198742112	1
0	2512	813.523232558366	2
0	2513	814.274097151681	1
0	2518	814.551406869609	0
0	2525	816.21027240259	1
0	2528	817.169091935074	2
0	2530	818.103197362928	1
0	2536	819.082841624636	0
0	2574	831.67954084412	1
0	2576	833.228595408406	2
0	2577	833.832092831108	1
0	2582	834.621700896962	0
0	2591	837.608139844811	1
0	2594	839.80656583391	2
0	2595	840.185893147716	1
0	2600	842.020388010926	0
0	2606	842.717002266064	1
0	2607	842.856968472383	0
0	2630	846.95194879986	1
0	2631	847.421638652127	0
0	2638	848.143271158515	1
0	2640	848.893470526936	2
0	2641	849.30914495504	1
0	2647	851.109040457185	2
0	2648	851.26765264202	1
0	2656	853.956543288416	2
0	2657	854.313059340013	1
0	2663	854.483195624347	2
0	2665	856.351945701637	1
0	2670	857.227224949945	0
0	2688	865.070544865608	1
0	2690	865.799992836983	2
0	2692	867.564223925757	3
0	2695	869.036432897171	2
0	2702	869.166675302299	1
0	2709	869.292842657407	2
0	2712	870.004708305932	1
0	2719	870.537617708843	2
0	2720	870.737084373142	1
0	2726	870.890865814681	2
0	2727	871.224513968921	1
0	2734	872.673794752454	0
0	2750	881.080676826331	1
0	2752	882.053901907104	2
0	2754	882.428300837996	3
0	2761	886.311551772642	4
0	2762	886.500766033756	3
0	2770	892.204989366889	2
0	2783	898.490016940995	1
0	2788	900.156345355061	0
0	2814	902.654481268083	1
0	2818	903.345481059685	2
0	2821	905.935303758317	1
0	2827	906.747462828778	2
0	2830	908.708678878457	1
0	2835	909.949698004456	0
0	2850	911.546816025871	1
0	2852	911.815049380488	2
0	2855	913.02499083057	1
0	2861	913.431921774285	2
0	2863	914.088843571354	1
0	2871	914.614030133291	0
0	2878	914.887108802531	1
0	2879	915.934176644113	0
0	2905	921.788815696502	1
0	2906	922.840486830893	0
0	2912	922.939898296976	1
0	2913	923.181568726793	0
0	2922	926.184912761052	1
0	2925	927.0160298002	2
0	2932	928.606235597387	1
0	2938	930.423605744492	0
0	2947	931.374445134188	1
0	2951	932.530483410177	0
0	2978	943.847736716387	1
0	2984	947.104830662758	2
0	2985	947.404719535859	1
0	2991	947.49291010239	2
0	2993	948.483565170585	1
0	2998	948.609522549782	0
0	3014	951.333399422959	1
0	3016	952.198919523593	2
0	3018	954.486757305392	3
0	3020	954.930021399505	4
0	3021	955.893405908621	3
0	3029	958.40329376333	4
0	3030	958.549210866725	3
0	3041	960.911005267626	4
0	3048	967.490650071398	3
0	3053	969.961660802056	2
0	3060	973.894384216976	1
0	3065	975.185066078364	0
0	3085	979.640873756331	1
0	3086	979.763628283655	0
0	3092	980.127276043161	1
0	3096	981.898523622105	2
0	3097	983.823145096228	1
0	3103	986.788904323087	0
0	3132	998.38954473699	1
0	3134	1000.109699654618	2
0	3135	1002.40468619547	1
0	3142	1004.03501891271	2
0	3143	1005.129967316983	1
0	3151	1007.200354878376	0
0	3165	1013.105469611468	1
0	3168	1016.061661662592	0
0	3189	1021.054261200832	1
0	3190	1021.653402971535	0
0	3206	1029.171097614123	1
0	3207	1030.69725217059	0
0	3220	1031.296777148406	1
0	3222	1032.094914275308	2
0	3223	1032.640930654166	1
0	3228	1033.096088617486	0
0	3273	1044.042754961377	1
0	3278	1045.288782566823	0
0	3315	1057.774498681113	1
0	3317	1060.596651011601	2
0	3321	1061.338758378334	3
0	3322	1062.883568177897	2
0	3328	1063.335258338271	1
0	3336	1064.902606983409	0
0	3342	1065.930628441264	1
0	3344	1067.427291345196	0
0	3353	1069.270080967351	1
0	3356	1070.125154590225	0
0	3391	1078.174595454324	1
0	3392	1078.22667610637	0
0	3407	1080.905872071269	1
0	3409	1081.413201472168	2
0	3416	1085.593588687617	1
0	3421	1087.056739734301	0
0	3433	1090.154694112298	1
0	3436	1093.830267339797	0
0	3451	1099.636245042716	1
0	3452	1101.340373728768	0
0	3472	1105.405785914014	1
0	3474	1106.812036835527	2
0	3476	1108.786751693128	1
0	3486	1110.263089502005	0
0	3495	1111.141087848753	1
0	3499	1112.141186365487	0
0	3521	1116.969963637892	1
0	3523	1117.12461469994	2
0	3526	1119.826732576886	1
0	3532	1121.378462821795	2
0	3534	1125.770618176881	1
0	3539	1125.871957019333	0
0	3545	1125.935631791273	1
0	3550	1127.205516698695	0
0	3568	1132.882074923761	1
0	3569	1132.947337246773	0
0	3575	1133.391259030786	1
0	3577	1135.61073708149	0
0	3591	1139.333953820331	1
0	3593	1139.946605788519	2
0	3595	1140.439786498959	3
0	3596	1141.248490604664	2
0	3601	1142.704841400069	1
0	3609	1143.270831837203	2
0	3610	1143.339421483396	1
0	3615	1144.141802749392	0
0	3619	1144.95795818814	1
0	3625	1149.517427771659	0
0	3662	1167.874138303908	1
0	3663	1169.966638940447	0
0	3688	1179.423874875863	1
0	3690	1179.425832965299	2
0	3691	1180.977750889386	1
0	3697	1181.545915634229	2
0	3699	1182.681697788166	1
0	3706	1183.78381394952	0
0	3712	1183.857227683029	1
0	3713	1184.082772448422	0
0	3717	1184.949596162758	1
0	3723	1188.352209102709	2
0	3725	1190.160706487821	1
0	3735	1193.427505003774	0
0	3741	1194.491010120375	1
0	3743	1195.939260631593	0
0	3764	1197.714926926666	1
0	3766	1199.31061633438	0
0	3772	1199.355618715232	1
0	3774	1200.281471212018	0
0	3784	1201.477628364596	1
0	3788	1202.558535202234	2
0	3789	1204.285386571298	1
0	3796	1208.216549389136	2
0	3798	1211.928730488942	3
0	3800	1213.912757324628	4
0	3801	1214.555384029482	3
0	3806	1214.594491547211	2
0	3820	1219.505830824063	1
0	3826	1220.236035051809	2
0	3828	1220.6806234061	3
0	3829	1222.153528638457	2
0	3834	1224.051443757003	1
0	3843	1225.405445652416	0
0	3855	1226.707591279228	1
0	3856	1227.375157565334	0
0	3868	1228.795399868875	1
0	3869	1230.88284187129	0
0	3877	1234.919493311596	1
0	3878	1235.069590591749	0
0	3884	1235.273918453098	1
0	3886	1236.687996082827	0
0	3898	1237.959745729642	1
0	3900	1238.052971291996	2
0	3901	1238.212373147209	1
0	3906	1239.581252392521	0
0	3943	1252.450850565811	1
0	3947	1253.273791458396	2
0	3949	1253.610382048056	3
0	3951	1253.644895311722	4
0	3952	1255.666437507981	3
0	3957	1255.990868140655	2
0	3964	1257.18673201923	1
0	3969	1257.227825583432	0
0	3988	1263.510897287833	1
0	3989	1263.856041037591	0
0	3993	1265.059827247813	1
0	3995	1265.187481738149	2
0	3998	1266.211428225443	1
0	4003	1266.937529192029	0
0	4007	1267.510851133643	1
0	4016	1270.692357979839	2
0	4024	1275.182577482315	1
0	4029	1275.253870040578	0
0	4058	1282.511969508338	1
0	4060	1283.257858669082	2
0	4061	1284.374647982804	1
0	4067	1284.546840573276	2
0	4071	1285.401918317677	1
0	4077	1287.844240039806	0
0	4083	1288.030136227472	1
0	4092	1291.588018035958	2
0	4094	1293.190533683483	1
0	4100	1293.675022935131	2
0	4103	1294.333562146545	3
0	4105	1295.115497506775	4
0	4107	1295.93961892814	5
0	4109	1296.839824598045	6
0	4111	1297.49523175971	7
0	4118	1301.008590345088	6
0	4134	1307.089788298462	5
0	4140	1310.399610008396	4
0	4147	1311.340539175974	5
0	4151	1313.231143982313	6
0	4152	1313.631655618499	5
0	4157	1313.746526961253	4
0	4163	1315.613510660952	3
0	4172	1318.372267842101	4
0	4174	1320.570695696501	5
0	4177	1321.034951667023	4
0	4184	1322.267358940987	5
0	4186	1322.745602913863	6
0	4188	1324.270147888115	7
0	4191	1328.606813326701	6
0	4197	1330.628872273251	5
0	4203	1331.106474875866	4
0	4209	1331.75930488379	5
0	4210	1332.047795208184	4
0	4216	1334.202060053952	5
0	4217	1336.557461612501	4
0	4227	1339.063686170087	3
0	4232	1342.034741037543	2
0	4239	1344.63577785012	3
0	4240	1345.527480289381	2
0	4249	1350.788600797296	3
0	4250	1351.660750022283	2
0	4257	1354.594793320469	3
0	4258	1354.614097316749	2
0	4266	1355.821366878415	3
0	4269	1356.668095351455	4
0	4271	1357.322126229043	3
0	4276	1358.464478638541	2
0	4283	1359.851586341841	1
0	4291	1361.683139523073	0
0	4297	1362.16582318576	1
0	4298	1364.482761030248	0
0	4309	1365.493995378304	1
0	4312	1367.527334109002	0
0	4318	1367.705888485792	1
0	4319	1368.985179155599	0
0	4352	1374.920799944807	1
0	4356	1376.919438462108	2
0	4359	1380.826632606603	1
0	4364	1381.153626219683	0
0	4378	1383.900040938347	1
0	4380	1384.048253646124	2
0	4382	1384.118271337624	3
0	4387	1389.792888478885	2
0	4393	1391.178373131086	3
0	4394	1391.308934954416	2
0	4399	1393.693919318528	1
0	4404	1394.296674745021	0
0	4424	1402.073368257588	1
0	4426	1402.074151371636	2
0	4427	1402.651917267595	1
0	4435	1404.542111473008	0
0	4447	1408.830499012526	1
0	4448	1410.398399891666	0
0	4455	1411.295528723487	1
0	4456	1413.220589321034	0
0	4471	1418.551221271197	1
0	4475	1422.437224709811	0
0	4482	1427.480819328304	1
0	4483	1428.051776339536	0
0	4510	1434.470768086199	1
0	4514	1436.090710624423	2
0	4515	1437.275089342013	1
0	4521	1439.060610540031	0
0	4528	1440.3504982107	1
0	4529	1441.365306531825	0
0	4542	1443.024669101754	1
0	4544	1443.291692234671	2
0	4548	1447.454449189983	3
0	4549	1447.6223234901	2
0	4555	1448.341201955554	3
0	4557	1448.439583220768	4
0	4558	1448.682638336933	3
0	4563	1449.377008897165	2
0	4575	1453.093190694828	3
0	4576	1454.023337355484	2
0	4586	1456.639278514027	3
0	4587	1457.88106351909	2
0	4593	1457.956828053132	3
0	4594	1458.018032967388	2
0	4599	1459.093083357969	1
0	4604	1460.353540872473	0
0	4643	1469.514548861302	1
0	4644	1469.982793331614	0
0	4650	1470.258115731591	1
0	4657	1474.387360022652	0
0	4676	1491.224173403549	1
0	4678	1492.338686204827	2
0	4681	1498.950685145449	1
0	4686	1499.429849276916	0
0	4692	1499.704554293692	1
0	4693	1499.864041817067	0
0	4718	1508.693209129041	1
0	4720	1511.530573097949	2
0	4722	1512.582222990464	3
0	4725	1514.666684614789	2
0	4732	1517.562909567834	1
0	4737	1517.574939453195	0
0	4748	1518.406308196078	1
0	4750	1521.162158567558	0
0	4760	1528.787895246843	1
0	4761	1529.272995156745	0
0	4790	1538.524622953415	1
0	4792	1538.603314606527	2
0	4793	1539.433993619	1
0	4798	1539.497785274527	0
0	4806	1540.36857198258	1
0	4807	1540.846217343168	0
0	4816	1542.254607069537	1
0	4821	1544.950758041916	2
0	4822	1545.028375852658	1
0	4826	1546.723675992199	2
0	4832	1549.299427114524	1
0	4840	1552.629073528112	2
0	4843	1556.648144956826	3
0	4844	1557.153389533062	2
0	4849	1558.504547862965	1
0	4856	1560.424740701984	0
0	4863	1560.899629551514	1
0	4867	1561.302038962413	2
0	4869	1561.605470212231	3
0	4870	1561.774455214983	2
0	4881	1567.749588406157	3
0	4882	1570.62086803869	2
0	4888	1571.014000067609	1
0	4893	1571.371179663413	0
0	4908	1575.005443125408	1
0	4910	1575.386968689718	2
0	4911	1575.580878043565	1
0	4918	1579.513737977736	2
0	4920	1580.053365086679	3
0	4921	1580.385347218432	2
0	4928	1581.914727372345	1
0	4933	1582.11891405847	0
0	4950	1588.31073188437	1
0	4953	1590.848225659408	2
0	4955	1593.244364347377	3
0	4956	1596.275737410785	2
0	4967	1597.596349539609	3
0	4969	1597.967588288335	4
0	4971	1599.154071441118	3
0	4976	1599.365777581491	2
0	4985	1601.831122299158	3
0	4988	1603.855495457601	2
0	4994	1604.731960895044	3
0	4995	1605.226001194653	2
0	5002	1605.984015828916	1
0	5009	1607.85163031353	2
0	5011	1608.362144453385	1
0	5016	1608.706797368564	0
0	5029	1614.585122557059	1
0	5030	1614.614448282781	0
0	5036	1614.787601404708	1
0	5039	1618.475794420441	0
0	5045	1620.777311340571	1
0	5047	1625.469306424134	2
0	5051	1630.300426230466	3
0	5052	1630.518325030441	2
0	5057	1632.876239904269	1
0	5061	1633.073235166265	2
0	5064	1634.380175192566	1
0	5072	1639.580672104796	0
0	5089	1641.211553270062	1
0	5090	1644.144245664411	0
0	5105	1649.419469346378	1
0	5109	1650.452016812198	2
0	5110	1650.872040038989	1
0	5115	1653.332873159708	0
0	5134	1656.601073296491	1
0	5136	1657.776293542657	2
0	5137	1658.981251746109	1
0	5143	1659.81854127356	0
0	5154	1661.469497871493	1
0	5158	1662.017585263098	2
0	5159	1662.247542275539	1
0	5166	1663.036604115409	2
0	5167	1663.406265535289	1
0	5173	1664.047593784984	2
0	5175	1664.558768424813	1
0	5182	1667.282284715746	0
0	5188	1668.125911218883	1
0	5189	1669.175717334316	0
0	5207	1674.689145497187	1
0	5208	1675.196794580712	0
0	5228	1683.289883673969	1
0	5229	1683.359637686462	0
0	5278	1701.79945792719	1
0	5281	1704.09015429802	0
0	5291	1710.257210833719	1
0	5293	1711.803333335	2
0	5295	1712.06481455233	3
0	5296	1714.811722193906	2
0	5302	1716.054649090631	1
0	5308	1717.672501928321	0
0	5319	1723.301590577744	1
0	5324	1725.408777197959	0
0	5331	1727.651947105315	1
0	5332	1730.588750124468	0
0	5360	1742.235971214338	1
0	5361	1743.542471056546	0
0	5376	1746.959882326689	1
0	5379	1747.351448843813	0
0	5389	1749.707230580819	1
0	5395	1752.39327946478	2
0	5396	1753.815593075181	1
0	5403	1755.894895407617	2
0	5404	1757.393450836759	1
0	5410	1757.658655200964	2
0	5412	1758.373176224139	1
0	5418	1759.029267678587	2
0	5419	1759.07734887122	1
0	5428	1762.012070725706	2
0	5429	1763.26073046432	1
0	5434	1764.899356189813	0
0	5440	1764.990919633684	1
0	5446	1767.891068763978	0
0	5465	1773.820195111817	1
0	5472	1776.564773912168	0
0	5481	1777.438270387214	1
0	5483	1777.94940210359	0
0	5499	1779.464317681374	1
0	5502	1781.268940636022	0
0	5515	1785.065408383787	1
0	5517	1786.725031067246	0
0	5525	1787.922641225019	1
0	5528	1790.675565480854	2
0	5531	1793.307041190283	1
0	5537	1793.958702680795	2
0	5539	1795.59301622963	1
0	5544	1795.934785490587	0
0	5569	1802.07845468994	1
0	5572	1804.265509176384	0
0	5585	1808.997123942798	1
0	5590	1813.333406044366	2
0	5592	1814.003542347475	3
0	5593	1816.507000017101	2
0	5599	1816.964441201488	3
0	5604	1818.298455450686	2
0	5612	1818.683580495753	3
0	5615	1821.885115631826	2
0	5620	1822.631325699655	1
0	5626	1823.390632222231	2
0	5627	1824.94540673254	1
0	5632	1825.843835148987	0
0	5636	1826.248197843998	1
0	5640	1827.466206648635	0
0	5656	1831.744264529579	1
0	5657	1832.166239460977	0
0	5677	1835.456984551416	1
0	5679	1836.844108351009	2
0	5681	1838.659659809251	3
0	5682	1839.028875802468	2
0	5688	1839.620099194907	1
0	5694	1843.243754145049	0
0	5702	1843.983564237828	1
0	5703	1844.727313309076	0
0	5716	1847.59632082447	1
0	5717	1849.669159273949	0
0	5723	1850.5026998992	1
0	5726	1851.596331770324	2
0	5727	1853.764670839888	1
0	5732	1854.235275093288	0
0	5738	1854.495632712105	1
0	5741	1857.5798406977	0
0	5749	1860.288986706584	1
0	5751	1862.403037132231	2
0	5752	1862.434406931219	1
0	5760	1865.266253116934	2
0	5763	1866.873589156526	1
0	5769	1867.163494855866	0
0	5778	1871.604643840868	1
0	5779	1872.490282138016	0
0	5802	1875.543460449576	1
0	5803	1876.197744174755	0
0	5810	1882.067261744899	1
0	5811	1883.602262334285	0
0	5826	1885.877223314269	1
0	5832	1888.17104531591	2
0	5839	1890.617809399296	1
0	5845	1891.218801601694	2
0	5848	1892.407633393424	3
0	5850	1892.866236143814	4
0	5853	1896.048064865395	3
0	5858	1896.114544464636	2
0	5866	1897.865173515377	1
0	5872	1898.858669635437	2
0	5875	1899.354046271443	3
0	5879	1899.869523789577	4
0	5881	1903.468057979234	3
0	5887	1903.481123649409	4
0	5888	1903.537217525709	3
0	5893	1903.841529482593	2
0	5899	1907.413686572154	3
0	5902	1910.524735486893	2
0	5906	1910.645614800325	3
0	5909	1911.897331972651	2
0	5915	1912.41294988698	3
0	5919	1912.966027527927	4
0	5922	1914.698601586227	5
0	5924	1916.279520241761	4
0	5930	1917.010618081438	5
0	5931	1917.606875889233	4
0	5936	1918.106778284849	3
0	5953	1922.062843025398	2
0	5961	1923.753233404569	3
0	5962	1925.106072248566	2
0	5969	1925.640515930905	3
0	5972	1927.048485245129	4
0	5974	1927.57456332174	3
0	5980	1931.715904218355	4
0	5982	1932.022841131403	5
0	5983	1932.335206204545	4
0	5988	1934.149948598776	3
0	5993	1936.951696848871	2
0	5997	1938.17147999711	3
0	6000	1939.536251811442	2
0	6004	1940.219638261586	3
0	6007	1940.665859265352	2
0	6012	1943.229207641163	1
0	6017	1944.202404094266	0
0	6021	1944.457626719377	1
0	6023	1946.866633324674	2
0	6026	1948.290174288816	1
0	6031	1950.203571778104	0
0	6037	1951.378576098813	1
0	6041	1952.589352935239	2
0	6043	1955.638631218599	3
0	6044	1956.492898834821	2
0	6052	1962.368380809806	1
0	6057	1962.518083920562	0
0	6061	1962.749075678381	1
0	6065	1965.828131300588	2
0	6066	1966.032537791681	1
0	6070	1966.26864536577	2
0	6074	1966.601620067721	3
0	6075	1967.410249168093	2
0	6081	1969.801683542543	3
0	6082	1970.041221087779	2
0	6086	1970.535139133971	3
0	6090	1971.666564587783	2
0	6103	1975.200877130405	3
0	6106	1977.290566092978	2
0	6116	1980.828989354987	3
0	6119	1984.481008579106	4
0	6120	1984.758765643776	3
0	6126	1985.06891184939	4
0	6128	1986.413453989266	3
0	6133	1986.45429742606	2
0	6140	1987.524518212736	3
0	6142	1987.631443559586	4
0	6143	1988.810980594434	3
0	6149	1990.413803532315	4
0	6156	1993.974245102036	3
0	6161	1994.444883006912	2
0	6166	1995.379355930345	1
0	6174	1995.567091250245	2
0	6177	1995.826389665254	3
0	6178	1995.832969470517	2
0	6185	1996.30820420387	1
0	6191	1998.310025446355	0
0	6197	1998.331274056066	1
0	6198	1999.391822458149	0
0	6202	1999.835799470522	1
0	6206	2002.22564351762	2
0	6208	2004.322664629293	3
0	6211	2009.685784981692	2
0	6223	2015.005328932838	1
0	6229	2015.741284455394	2
0	6231	2016.941751543866	1
0	6236	2017.31249154638	0
0	6264	2026.715616002175	1
0	6265	2027.599773878855	0
0	6272	2032.404123311549	1
0	6273	2033.529511628177	0
0	6279	2033.923734564143	1
0	6280	2034.728054913167	0
0	6288	2035.933674045736	1
0	6289	2036.16279895179	0
0	6297	2040.115027897742	1
0	6298	2041.571572099788	0
0	6312	2043.460273580801	1
0	6315	2047.162453732031	0
0	6330	2049.891704726679	1
0	6332	2050.327568101743	2
0	6334	2051.06513880583	3
0	6337	2053.228155994385	2
0	6344	2054.686808718247	3
0	6345	2054.846313083761	2
0	6351	2056.041167991013	1
0	6357	2057.892621829261	0
0	6373	2063.455621605661	1
0	6375	2064.151394593073	2
0	6380	2067.236774168082	3
0	6381	2067.573427574297	2
0	6387	2067.770521924847	1
0	6399	2076.180883534903	0
0	6414	2081.210253760021	1
0	6418	2081.535591921715	2
0	6420	2081.57581390013	3
0	6421	2081.961234070929	2
0	6427	2085.279265678603	1
0	6432	2086.563937488014	0
0	6442	2088.519072049809	1
0	6444	2089.78225534062	0
0	6450	2090.006983022125	1
0	6458	2093.838170437548	0
0	6484	2102.365283313088	1
0	6489	2106.609342116969	0
0	6498	2110.580330461634	1
0	6504	2111.744369603134	2
0	6507	2114.671639525597	1
0	6514	2117.371689127581	2
0	6515	2119.131360280338	1
0	6521	2119.209529636791	2
0	6525	2120.674676539868	3
0	6526	2123.205205534958	2
0	6531	2125.02544284373	1
0	6537	2125.546431348978	2
0	6538	2126.624137799553	1
0	6546	2130.579677456119	2
0	6550	2131.210835996007	3
0	6552	2132.009206316188	4
0	6554	2132.112089692974	5
0	6555	2134.292132934419	4
0	6561	2136.580744965558	3
0	6566	2141.640931533567	2
0	6572	2142.818043376908	1
0	6580	2143.998347061819	0
0	6607	2154.096495658315	1
0	6608	2154.389839609489	0
0	6621	2158.520439709616	1
0	6623	2159.577756568141	0
0	6639	2163.858928118901	1
0	6640	2164.303000990377	0
0	6649	2169.457862927229	1
0	6653	2170.671565903234	2
0	6655	2170.768052120202	3
0	6656	2172.315794507067	2
0	6662	2173.572136357	1
0	6667	2174.379063799233	0
0	6693	2184.517135749548	1
0	6697	2186.774819058488	2
0	6698	2188.49680280669	1
0	6704	2189.402630042909	0
0	6729	2195.778614952992	1
0	6730	2196.257137205687	0
0	6758	2207.435278550787	1
0	6759	2208.109111692804	0
0	6770	2210.697790836033	1
0	6772	2212.442337678454	0
0	6791	2215.080194659604	1
0	6792	2215.668014571062	0
0	6822	2228.734401040786	1
0	6823	2229.377231962156	0
0	6829	2229.643956632919	1
0	6831	2231.242274886182	0
0	6842	2234.406335061614	1
0	6844	2234.735700934779	2
0	6847	2238.097469384498	1
0	6852	2238.233194686572	0
0	6862	2242.737984937699	1
0	6864	2244.335353058114	2
0	6865	2244.522243910629	1
0	6870	2244.59176398074	0
0	6877	2246.949043322734	1
0	6878	2248.009847907133	0
0	6885	2249.745540357614	1
0	6890	2254.730711312619	0
0	6911	2268.37170656004	1
0	6913	2269.659557873303	2
0	6916	2270.355805856917	1
0	6924	2272.131294652989	0
0	6936	2274.817814231618	1
0	6942	2284.848853598192	2
0	6943	2286.434406040316	1
0	6949	2286.866399067402	2
0	6950	2287.721287340538	1
0	6956	2288.326276066925	2
0	6958	2288.99036814435	1
0	6964	2289.486031097827	2
0	6966	2289.919560393142	1
0	6974	2292.863924833297	0
0	6991	2299.80162343299	1
0	6993	2300.063294170048	0
0	7009	2300.987143943957	1
0	7014	2302.918954040179	2
0	7016	2304.954318499461	3
0	7019	2306.963145706019	2
0	7026	2307.557205778317	3
0	7027	2307.803362925147	2
0	7034	2308.636283090098	3
0	7036	2311.006488795951	4
0	7037	2311.024512731437	3
0	7044	2311.943151300459	4
0	7050	2314.052115082029	5
0	7052	2314.449191057229	6
0	7053	2315.094814021506	5
0	7063	2322.943990291991	4
0	7069	2323.363066389236	5
0	7071	2323.586285655175	6
0	7073	2324.731482088641	7
0	7075	2326.115765872083	6
0	7080	2326.47789450122	5
0	7088	2328.096620326105	6
0	7089	2331.796410823022	5
0	7094	2332.356129358378	4
0	7104	2337.292871100066	3
0	7109	2337.317619609994	2
0	7118	2342.603637444397	1
0	7124	2343.007196078886	2
0	7126	2347.170180310656	1
0	7132	2349.070519466388	0
0	7139	2349.764075666928	1
0	7140	2351.094384436379	0
0	7159	2356.564146230772	1
0	7161	2356.864023747794	2
0	7162	2357.022486896339	1
0	7168	2357.465715447287	2
0	7169	2357.798556302343	1
0	7179	2359.877917167587	2
0	7180	2361.984673042483	1
0	7185	2362.790985434542	0
0	7199	2365.896727392233	1
0	7202	2366.281725027527	0
0	7223	2371.929019048091	1
0	7227	2372.528439099312	2
0	7229	2374.879317540679	3
0	7233	2377.145556296322	4
0	7234	2378.131734826497	3
0	7240	2379.39670425679	4
0	7241	2379.443196385631	3
0	7246	2380.433475130821	2
0	7251	2380.541817109911	1
0	7255	2381.552307611947	2
0	7259	2385.046804559693	1
0	7268	2386.98888337432	2
0	7272	2389.050935295323	1
0	7280	2392.458989460122	2
0	7284	2393.235432499948	3
0	7285	2393.606648159653	2
0	7295	2397.475772940465	3
0	7298	2399.68176682667	2
0	7306	2400.324225056048	1
0	7311	2400.657952438076	0
0	7331	2408.424561914661	1
0	7332	2408.468374194711	0
0	7342	2411.414768446262	1
0	7345	2413.497851599433	0
0	7351	2415.919736998278	1
0	7353	2415.927609898928	2
0	7358	2418.418013458719	1
0	7362	2419.777416765821	2
0	7366	2424.707971328731	3
0	7373	2427.025686599047	4
0	7374	2428.587014584301	3
0	7381	2429.435517778172	2
0	7389	2434.613937834102	1
0	7394	2434.747900673982	0
0	7412	2438.342644676112	1
0	7413	2438.557585005419	0
0	7443	2446.368223132978	1
0	7447	2446.957394774596	2
0	7448	2447.494891484434	1
0	7455	2447.849817668175	2
0	7456	2447.953841268157	1
0	7461	2448.620789805937	0
0	7468	2451.180798670009	1
0	7472	2455.159619062294	0
0	7486	2459.499279150414	1
0	7488	2460.19269043023	2
0	7489	2460.290012883674	1
0	7496	2464.631547552029	2
0	7499	2470.584130273005	1
0	7504	2470.587497338034	0
0	7516	2471.374409298016	1
0	7517	2471.914892717749	0
0	7531	2477.237738409628	1
0	7533	2479.025690567534	2
0	7534	2479.11277825144	1
0	7539	2479.242498543066	0
0	7551	2480.084209555593	1
0	7552	2481.118733743207	0
0	7563	2483.614425200866	1
0	7565	2483.695539322155	2
0	7567	2485.12135311871	3
0	7573	2490.573544079598	2
0	7581	2495.000167100714	1
0	7587	2496.690059783297	0
0	7597	2497.875965777895	1
0	7599	2497.975723397109	2
0	7600	2498.387176639594	1
0	7606	2498.970909468395	2
0	7608	2499.741645408701	1
0	7613	2500.166915118219	0
0	7619	2501.538822259697	1
0	7620	2501.653518620573	0
0	7652	2510.958136225117	1
0	7654	2511.533937990628	2
0	7657	2512.167589365443	1
0	7662	2513.042763179983	0
0	7671	2515.243207663057	1
0	7673	2515.887320490784	2
0	7677	2517.317756419063	3
0	7678	2518.038393596568	2
0	7686	2518.779899374626	3
0	7690	2521.081698137618	4
0	7696	2523.739508666539	5
0	7697	2523.754078729074	4
0	7706	2528.182455699641	3
0	7713	2531.221904691155	4
0	7714	2532.765490234246	3
0	7720	2532.900131096683	4
0	7722	2534.97610963714	3
0	7729	2537.08090384366	2
0	7736	2538.716248849032	1
0	7743	2542.638432991293	2
0	7746	2543.114282778328	1
0	7754	2544.836087595398	0
0	7761	2545.206376321222	1
0	7763	2546.903569405985	2
0	7764	2547.770523189665	1
0	7770	2548.403919625068	2
0	7775	2550.604907580506	3
0	7776	2552.039765611094	2
0	7781	2552.532617658664	1
0	7788	2553.280125475988	0
0	7795	2554.989544653615	1
0	7799	2556.536561555502	2
0	7800	2557.596763616446	1
0	7806	2557.657220418703	2
0	7808	2558.11682945036	1
0	7813	2558.818310363543	0
0	7838	2562.451118860579	1
0	7840	2564.056889273957	2
0	7841	2565.074967180553	1
0	7846	2565.421628924895	0
0	7869	2578.570631455417	1
0	7871	2580.299057900839	2
0	7874	2583.032694709155	1
0	7879	2583.313230287042	0
0	7886	2584.564619729816	1
0	7888	2585.885220678426	0
0	7903	2592.616069969245	1
0	7907	2594.236106064408	2
0	7909	2595.376266398733	3
0	7910	2597.233450611231	2
0	7919	2598.227020432348	3
0	7922	2600.27929976766	2
0	7927	2600.366232377339	1
0	7938	2602.942865752772	2
0	7944	2607.213965175691	3
0	7946	2607.752238897509	4
0	7947	2608.832534998195	3
0	7952	2608.873499352818	2
0	7958	2609.108081383368	3
0	7959	2609.225759776242	2
0	7965	2610.869083043262	3
0	7969	2612.892849935265	2
0	7975	2613.755654327933	1
0	7980	2613.817547848011	0
0	7989	2618.924426741076	1
0	7990	2618.985750584475	0
0	7996	2620.294819311553	1
0	8001	2620.746518023194	2
0	8002	2622.005233939138	1
0	8013	2624.30264184417	2
0	8015	2624.430401653518	3
0	8017	2624.906000025632	4
0	8019	2625.676660527909	3
0	8025	2626.430997127084	4
0	8027	2626.869586014221	5
0	8034	2632.858233766594	4
0	8041	2635.947063302023	5
0	8042	2635.964551644963	4
0	8049	2637.250506285932	3
0	8055	2638.651864352705	4
0	8059	2641.997674740059	5
0	8061	2642.131716429932	6
0	8064	2644.024861075965	5
0	8072	2644.490948760969	6
0	8073	2644.878989408239	5
0	8079	2646.037694148643	6
0	8086	2650.646655826085	5
0	8092	2651.069070248995	4
0	8098	2651.388498914968	3
0	8104	2652.756438413414	4
0	8105	2653.932500273482	3
0	8113	2658.087301771861	2
0	8120	2658.414062477864	1
0	8127	2659.247690002824	2
0	8132	2661.867183930476	3
0	8133	2663.494385434317	2
0	8139	2668.949377600839	1
0	8146	2671.640003509891	2
0	8147	2672.51068506041	1
0	8154	2674.352763604168	2
0	8156	2674.550064233451	3
0	8157	2674.690138461872	2
0	8164	2675.548251541576	3
0	8165	2676.61091944828	2
0	8171	2677.49020104382	1
0	8177	2680.424336408745	0
0	8209	2685.892173610909	1
0	8211	2686.047414165619	2
0	8214	2688.273002365458	1
0	8220	2688.529852545052	2
0	8221	2689.466963090701	1
0	8226	2690.775912519554	0
0	8248	2698.261707104969	1
0	8250	2699.341615873978	2
0	8255	2701.594115512215	1
0	8263	2702.859205753124	2
0	8267	2704.387014892476	1
0	8275	2706.758336127219	0
0	8281	2706.765365205408	1
0	8285	2709.278595984025	2
0	8286	2714.850872976561	1
0	8291	2714.90715697885	0
0	8304	2715.710482788048	1
0	8307	2718.347625078003	0
0	8319	2726.422850223119	1
0	8322	2729.400501236921	0
0	8329	2730.315851996308	1
0	8330	2731.76811168029	0
0	8339	2732.817777811432	1
0	8345	2735.759623057501	0
0	8351	2736.060687718806	1
0	8354	2738.610833229583	0
0	8370	2743.504043148431	1
0	8374	2744.557537846795	0
0	8380	2744.92766599661	1
0	8382	2745.296935838216	0
0	8409	2753.853249896202	1
0	8411	2754.686720102467	2
0	8413	2755.197308018367	3
0	8414	2757.1298170593	2
0	8423	2757.732840291944	3
0	8426	2762.431249903048	4
0	8427	2765.82677455595	3
0	8432	2765.842146473354	2
0	8439	2767.15649415084	3
0	8443	2771.245368184615	2
0	8449	2771.653108785359	1
0	8454	2771.668229728579	0
0	8479	2778.474587964727	1
0	8482	2781.578806634635	2
0	8483	2782.636812462917	1
0	8490	2783.331232644159	0
0	8496	2783.670921379781	1
0	8501	2789.017282455752	2
0	8502	2789.909070753526	1
0	8508	2790.941119276269	0
0	8527	2796.681361022347	1
0	8530	2797.473880916283	0
0	8542	2799.416460887498	1
0	8548	2801.048232264686	2
0	8551	2802.696358382802	1
0	8556	2802.921507175902	0
0	8582	2805.790949094222	1
0	8585	2808.11285163043	0
0	8602	2809.947102022673	1
0	8604	2810.053663703343	2
0	8612	2813.769662999276	3
0	8614	2814.034568575848	4
0	8615	2814.806988986583	3
0	8620	2815.486619286583	2
0	8627	2816.061975206403	1
0	8632	2816.598125033619	0
0	8641	2818.262107757617	1
0	8650	2822.974081436107	0
0	8656	2823.118700478957	1
0	8660	2824.072592315044	2
0	8664	2824.995405315363	3
0	8665	2825.760187598235	2
0	8671	2825.828450275332	3
0	8673	2826.353619646956	4
0	8679	2833.347423251514	3
0	8685	2834.247202946635	4
0	8687	2836.204495456576	3
0	8694	2836.86284031793	4
0	8699	2839.096952685004	3
0	8705	2840.541118578216	2
0	8710	2840.776237298542	1
0	8715	2841.190601124769	0
0	8762	2865.101836034648	1
0	8764	2868.210300947808	2
0	8765	2869.83850558415	1
0	8773	2871.443506901478	2
0	8775	2871.782394907128	1
0	8784	2872.614995043333	2
0	8786	2872.655542198041	3
0	8788	2875.758302896277	4
0	8789	2879.699944754768	3
0	8794	2880.195921821029	2
0	8800	2880.617856399861	3
0	8801	2881.269231214443	2
0	8809	2882.435525479078	3
0	8813	2885.335961349832	2
0	8820	2886.485019012976	3
0	8821	2886.545843380641	2
0	8825	2888.13567555467	3
0	8827	2888.739843429882	4
0	8829	2889.591719854189	5
0	8831	2891.818189412425	6
0	8835	2893.478881456297	5
0	8841	2895.522244044394	4
0	8847	2895.596975386395	5
0	8849	2898.164701361006	4
0	8858	2902.554059289033	5
0	8859	2902.914470797355	4
0	8865	2904.073129899685	3
0	8871	2904.207199753731	4
0	8874	2905.118646930669	5
0	8875	2905.326538132734	4
0	8880	2905.638485810489	3
0	8886	2905.769482515173	2
0	8892	2907.266017313966	1
0	8899	2908.985615855873	2
0	8900	2909.570250091445	1
0	8905	2909.64967807226	0
0	8911	2911.907306233518	1
0	8915	2914.524837430733	0
0	8933	2916.185931224495	1
0	8936	2917.699347677096	2
0	8940	2919.310496137022	1
0	8946	2921.196403637682	2
0	8948	2921.865381029207	1
0	8953	2922.210286759366	0
0	8976	2926.927030760306	1
0	8978	2927.124294745292	2
0	8981	2927.554563021332	1
0	8992	2930.30827019921	0
0	9017	2934.998703198729	1
0	9024	2936.560610155921	2
0	9025	2936.659624326238	1
0	9031	2940.054272864544	0
0	9046	2943.571902277001	1
0	9049	2951.183103072762	0
0	9067	2958.070797683748	1
0	9069	2959.284772289538	2
0	9072	2963.398612441062	1
0	9078	2964.886278768813	0
0	9084	2965.772246488856	1
0	9085	2965.928707151412	0
0	9107	2974.939342296417	1
0	9108	2978.443408126533	0
0	9128	2985.264252065281	1
0	9129	2986.52790267655	0
0	9140	2987.337958299578	1
0	9141	2988.468037686922	0
0	9158	2990.99883001483	1
0	9163	2996.298025594108	0
0	9177	2998.744946377533	1
0	9179	2998.798651249201	2
0	9185	3002.762626466494	1
0	9190	3005.865386002127	0
0	9219	3020.482972838382	1
0	9221	3021.016365414484	2
0	9222	3022.263141358604	1
0	9229	3023.511111218435	0
0	9245	3026.906622109394	1
0	9247	3027.384803827688	2
0	9260	3030.410936738771	3
0	9265	3031.853651901835	2
0	9271	3033.410397265809	1
0	9276	3035.648444475201	0
0	9285	3038.514999958144	1
0	9288	3039.494323537825	0
0	9302	3042.484953558287	1
0	9304	3045.835745025334	2
0	9305	3047.40416226605	1
0	9313	3052.397063058894	2
0	9315	3052.974771574504	3
0	9316	3053.000888778788	2
0	9322	3054.100025642038	1
0	9327	3054.413956636874	0
0	9341	3056.050420282824	1
0	9343	3058.355318019054	0
0	9372	3067.801801874392	1
0	9374	3068.506780568452	2
0	9376	3069.230953924604	3
0	9385	3073.788171636372	4
0	9386	3075.352428751671	3
0	9392	3077.372161494173	2
0	9397	3078.891749307807	1
0	9403	3079.953649727721	2
0	9404	3080.524265412691	1
0	9411	3083.618431924609	0
0	9418	3086.448159484361	1
0	9420	3086.548637260024	2
0	9423	3088.329297435643	3
0	9424	3090.126617077528	2
0	9430	3090.479474198229	3
0	9433	3093.156461005064	4
0	9434	3093.656058314337	3
0	9439	3093.811555796801	2
0	9448	3097.282582090177	1
0	9454	3098.673318385586	0
0	9483	3105.717785722815	1
0	9486	3106.570138423176	0
0	9495	3108.794796065829	1
0	9503	3113.49461787828	2
0	9505	3114.296807867693	3
0	9506	3114.737971458381	2
0	9511	3114.773398644176	1
0	9520	3116.676246936374	2
0	9521	3116.784382426403	1
0	9526	3117.107456747396	0
0	9546	3120.444533549036	1
0	9551	3125.482260876025	0
0	9565	3127.370475476724	1
0	9566	3128.492776171865	0
0	9592	3133.403611616373	1
0	9598	3137.321640130085	2
0	9600	3137.635693882589	3
0	9602	3138.547091865021	2
0	9607	3138.739205449077	1
0	9618	3141.993691718047	0
0	9634	3145.750956766953	1
0	9638	3146.11144155926	2
0	9642	3148.587991501374	3
0	9644	3148.652443131242	4
0	9649	3150.734012826892	3
0	9655	3152.621417134718	2
0	9660	3152.724349849178	1
0	9666	3153.134007489714	0
0	9673	3157.247581931617	1
0	9675	3157.614048706839	2
0	9676	3158.095226867784	1
0	9683	3160.124040659465	0
0	9703	3168.377185843898	1
0	9705	3170.417897744416	2
0	9710	3172.830195908834	3
0	9711	3173.131709287195	2
0	9716	3173.170670351784	1
0	9721	3173.868091643699	0
0	9728	3175.305061227327	1
0	9730	3175.928724389629	0
0	9737	3176.624828365041	1
0	9739	3176.720242729517	0
0	9755	3180.22641619999	1
0	9757	3181.682616562788	2
0	9759	3181.828922745339	3
0	9763	3182.388001756038	4
0	9765	3182.696177947619	5
0	9768	3184.129629616308	4
0	9774	3185.023070690794	5
0	9776	3189.507968930343	6
0	9777	3189.605477332154	5
0	9785	3190.671957219408	6
0	9786	3191.563312617989	5
0	9793	3194.59249425153	4
0	9799	3196.336247937033	5
0	9801	3196.874215861451	4
0	9808	3197.778706277503	5
0	9810	3198.557720744345	6
0	9811	3199.039318632546	5
0	9816	3200.36313849761	4
0	9823	3202.840946324113	3
0	9834	3206.487225040432	2
0	9839	3207.171932777636	1
0	9848	3209.953774935408	2
0	9849	3210.268113529903	1
0	9854	3210.431254080249	0
0	9864	3214.747534027422	1
0	9865	3218.931673430502	0
0	9871	3219.019575417948	1
0	9873	3223.101993086681	0
0	9885	3223.608553975491	1
0	9886	3223.86022578468	0
0	9892	3225.634075744505	1
0	9896	3228.904991419106	0
0	9902	3230.723950115569	1
0	9903	3232.187674858305	0
0	9916	3233.501251260553	1
0	9917	3233.915250243233	0
0	9923	3234.044293647289	1
0	9924	3234.896812011091	0
0	9928	3235.49863330533	1
0	9930	3235.853311995444	2
0	9934	3239.330290409374	1
0	9940	3240.642616488351	0
0	9947	3241.259978884431	1
0	9948	3241.586252073361	0
0	9976	3247.571583287584	1
0	9979	3248.417311467013	0
0	9992	3250.298367801808	1
0	9996	3253.77740104428	2
0	10001	3255.904990276613	1
0	10008	3257.749187340391	2
0	10010	3257.990962175386	3
0	10014	3260.398215501573	2
0	10020	3261.036281976381	3
0	10022	3262.165924230319	2
0	10028	3262.863251886074	3
0	10030	3263.757507382685	4
0	10031	3263.927853986423	3
0	10042	3270.55133079202	4
0	10043	3271.153355981817	3
0	10049	3271.410990952744	2
0	10055	3271.885373157519	3
0	10057	3272.505417868477	2
0	10063	3273.531183520634	3
0	10065	3273.546050809875	4
0	10067	3274.717772817687	3
0	10074	3279.966754254883	2
0	10081	3282.845323990728	3
0	10086	3285.305645560459	2
0	10091	3285.476691864504	1
0	10096	3285.509483934202	0
0	10124	3290.128900059656	1
0	10126	3290.681944552886	2
0	10127	3291.746797942608	1
0	10133	3293.184719358483	0
0	10157	3301.412912910242	1
0	10159	3302.633246132874	2
0	10162	3304.714597216152	1
0	10171	3305.914181382781	2
0	10178	3310.235185665278	3
0	10179	3312.410679882579	2
0	10184	3312.451361073495	1
0	10191	3313.098900025403	2
0	10196	3316.511600448724	3
0	10197	3316.620840468534	2
0	10205	3318.598133206634	1
0	10210	3320.170463689025	0
0	10231	3326.884903938681	1
0	10232	3327.883357572164	0
0	10238	3328.660273652911	1
0	10239	3328.970370151054	0
0	10256	3331.660671495757	1
0	10259	3332.113331333846	0
0	10265	3332.698149297552	1
0	10267	3332.931739641503	2
0	10269	3333.105969530621	1
0	10275	3334.346842913414	0
0	10291	3338.656633976634	1
0	10293	3338.79503810685	2
0	10295	3339.629114547414	3
0	10297	3339.70339762649	4
0	10299	3340.674170117583	5
0	10300	3340.767243772169	4
0	10305	3341.716334671121	3
0	10311	3342.01707835087	4
0	10312	3342.161916838177	3
0	10319	3344.517746022375	2
0	10327	3348.770456044421	3
0	10332	3353.353548355082	2
0	10338	3354.285438875525	3
0	10339	3354.745642468914	2
0	10346	3356.706765628375	1
0	10352	3356.796983770787	2
0	10359	3365.037477547198	3
0	10361	3365.448432742218	4
0	10365	3372.662947759635	3
0	10370	3373.132678637317	2
0	10376	3374.213811715638	1
0	10381	3374.252174293568	0
0	10404	3377.830722235673	1
0	10407	3378.016519052283	0
0	10426	3384.253700989279	1
0	10427	3385.04064864416	0
0	10434	3386.431955714689	1
0	10436	3389.582458700244	2
0	10438	3389.689490292936	3
0	10439	3390.877927923303	2
0	10448	3392.705655235831	1
0	10453	3393.760328235824	0
0	10496	3404.537573737681	1
0	10498	3405.597248984307	2
0	10499	3407.578296486461	1
0	10506	3408.81752721096	2
0	10508	3411.069915512699	3
0	10511	3412.550326405264	2
0	10517	3412.912865796092	3
0	10518	3412.95145183903	2
0	10524	3414.365226019553	1
0	10529	3415.705191443857	0
0	10536	3417.212897616978	1
0	10538	3419.949994386403	0
0	10550	3421.412175068438	1
0	10555	3423.723141234263	0
0	10575	3428.581873685507	1
0	10576	3430.698949114828	0
0	10585	3436.149548790011	1
0	10587	3436.680293119982	2
0	10591	3437.991882682328	1
0	10601	3438.759236283919	2
0	10602	3439.105341701271	1
0	10607	3439.75627897507	0
0	10620	3444.515509585881	1
0	10622	3447.377420802985	2
0	10623	3449.699243539143	1
0	10628	3450.117934508189	0
0	10634	3451.136511614911	1
0	10636	3456.805498122941	0
0	10693	3484.46166268822	1
0	10694	3486.266801667933	0
0	10703	3488.148827496426	1
0	10707	3489.376677973968	2
0	10708	3489.598032743664	1
0	10713	3490.193431052936	0
0	10728	3497.728937536239	1
0	10731	3500.33242030415	0
0	10753	3505.008530911661	1
0	10754	3505.442252251532	0
0	10767	3507.039764563961	1
0	10772	3509.125966867822	0
0	10783	3511.543408250007	1
0	10785	3511.595519274524	2
0	10789	3513.315057215094	1
0	10797	3516.732934748577	2
0	10801	3518.97227919456	3
0	10802	3519.446562164882	2
0	10808	3521.230742433996	1
0	10814	3521.404350115081	2
0	10817	3522.551119201312	1
0	10822	3523.020263941947	0
0	10856	3530.1221782924	1
0	10858	3531.210298602906	2
0	10859	3531.277655802855	1
0	10865	3534.076257365866	0
0	10884	3541.240154120186	1
0	10886	3542.229198391389	2
0	10888	3542.587738172583	3
0	10889	3542.935238741681	2
0	10898	3545.307526094909	3
0	10899	3546.298244940992	2
0	10906	3547.951949773902	1
0	10913	3548.585318323822	0
0	10929	3555.40181742479	1
0	10931	3555.891252281108	0
0	10948	3562.209222131917	1
0	10950	3562.577333534998	2
0	10952	3563.067535156701	1
0	10961	3567.593152349648	0
0	10979	3572.46124671418	1
0	10984	3573.903455326914	2
0	10990	3575.07830034637	3
0	10995	3576.480502675931	2
0	11003	3579.324660382304	1
0	11009	3579.345277810871	2
0	11011	3580.14395810091	1
0	11016	3580.263618774641	0
0	11024	3581.274060334837	1
0	11027	3584.520427451953	0
0	11039	3588.746597379857	1
0	11040	3589.146957169003	0
0	11060	3594.260500338274	1
0	11063	3595.527444584542	0
0	11071	3602.263091592017	1
0	11074	3603.310440044184	2
0	11075	3603.418306978336	1
0	11080	3603.644845329423	0
0	11099	3606.294055335505	1
0	11101	3607.879073703449	0
0	11113	3609.207011323501	1
0	11114	3610.468638058696	0
0	11125	3611.386010298227	1
0	11127	3611.447290126638	2
0	11130	3614.3162151999	1
0	11138	3615.254849653512	2
0	11139	3615.650546635322	1
0	11144	3616.848551239734	0
0	11193	3641.718920853901	1
0	11194	3642.365171158838	0
0	11212	3646.181947112778	1
0	11213	3647.250135561094	0
0	11232	3655.785751810844	1
0	11233	3656.951103005563	0
0	11240	3658.080938596717	1
0	11248	3663.638325474822	2
0	11249	3665.996862648718	1
0	11255	3666.238698178014	2
0	11257	3666.704956455313	3
0	11264	3671.356287486804	2
0	11270	3671.679780714565	1
0	11278	3673.741021055522	0
0	11308	3680.036524041936	1
0	11312	3683.12123796685	2
0	11313	3685.48435425675	1
0	11318	3685.843550063216	0
0	11324	3686.283968383588	1
0	11325	3686.375521966672	0
0	11336	3688.944685914174	1
0	11337	3689.366177444894	0
0	11344	3689.88150506666	1
0	11347	3693.491348694575	0
0	11374	3702.203793258418	1
0	11376	3702.941062552781	2
0	11377	3704.136493476631	1
0	11383	3704.844003243187	0
0	11393	3709.990374434207	1
0	11394	3710.131142529553	0
0	11416	3716.687083118677	1
0	11419	3719.702380315044	0
0	11425	3721.280003461097	1
0	11428	3721.811763249202	2
0	11430	3724.341478290534	3
0	11431	3725.383937426706	2
0	11436	3725.964250494078	1
0	11441	3727.695875484006	0
0	11447	3728.216065012244	1
0	11448	3728.828439632681	0
0	11465	3734.38446802366	1
0	11469	3736.355433632268	0
0	11487	3742.11209498026	1
0	11490	3743.306139947358	2
0	11491	3744.011558284718	1
0	11498	3745.874979798367	0
0	11512	3751.024473405772	1
0	11513	3752.985034594204	0
0	11529	3755.705979089047	1
0	11531	3756.019956105282	2
0	11535	3758.973906915592	1
0	11541	3759.875207182824	0
0	11562	3764.00535352298	1
0	11564	3764.046534281423	2
0	11566	3764.543534337536	3
0	11568	3764.841055881424	2
0	11574	3765.869706638239	1
0	11581	3766.616663989762	2
0	11582	3766.872389507028	1
0	11588	3769.296796869221	0
0	11609	3774.729839911618	1
0	11611	3776.104091625545	2
0	11612	3778.192662812879	1
0	11618	3778.498370063104	2
0	11620	3778.56995334683	3
0	11622	3779.489426292624	2
0	11630	3780.104301728302	3
0	11632	3780.790309058478	4
0	11633	3781.18350274057	3
0	11641	3784.352994751274	2
0	11647	3785.330806224188	3
0	11650	3791.139870133414	2
0	11658	3793.683826068388	1
0	11663	3794.029905082385	0
0	11693	3802.607570063837	1
0	11696	3807.375349703035	0
0	11706	3809.397436998006	1
0	11711	3814.213163590981	0
0	11733	3820.508785352371	1
0	11734	3820.620099090348	0
0	11740	3821.308699271132	1
0	11743	3822.844152478808	2
0	11746	3823.705265807553	1
0	11754	3825.209316436624	2
0	11756	3825.546581811379	1
0	11761	3826.570848475673	0
0	11772	3829.656940360843	1
0	11774	3830.228681383341	2
0	11775	3830.956072311274	1
0	11780	3831.635563913161	0
0	11793	3835.29412344681	1
0	11794	3836.149846336508	0
0	11806	3839.266500482629	1
0	11807	3839.627897488961	0
0	11816	3840.071621470359	1
0	11822	3842.372892292504	0
0	11844	3851.362483336804	1
0	11847	3855.199771914028	0
0	11854	3858.184331202828	1
0	11856	3860.672105088911	2
0	11858	3865.401379833543	3
0	11859	3865.781248250829	2
0	11867	3867.167235445294	1
0	11877	3871.960147672678	0
0	11891	3875.927762875945	1
0	11892	3877.079148123261	0
0	11907	3881.648363847624	1
0	11910	3884.087105141878	0
0	11917	3885.615430866818	1
0	11918	3885.740436440031	0
0	11931	3886.643930761963	1
0	11934	3889.092681871683	2
0	11935	3889.937435901034	1
0	11940	3889.994917749295	0
0	11982	3901.120907764687	1
0	11985	3903.939411998211	0
0	12007	3907.28084656574	1
0	12014	3910.765049440216	0
0	12029	3916.545594815862	1
0	12031	3917.067202319315	2
0	12032	3917.110244453037	1
0	12038	3918.480719612518	2
0	12039	3918.8821624672	1
0	12047	3920.446862204023	0
0	12073	3929.367213865144	1
0	12074	3931.401078055022	0
0	12080	3931.764474583367	1
0	12085	3934.917868478655	2
0	12091	3935.655147673232	1
0	12101	3939.52498571188	2
0	12102	3942.752947875063	1
0	12109	3943.983432107446	0
0	12138	3952.231320048168	1
0	12141	3953.453711817238	0
0	12148	3954.031907571619	1
0	12150	3954.208444747914	2
0	12155	3957.427289125062	3
0	12157	3958.015411017254	4
0	12159	3960.21061451197	5
0	12160	3960.222032837497	4
0	12165	3961.082498969053	3
0	12172	3964.31883274781	2
0	12178	3965.110854703237	3
0	12184	3966.843843182282	2
0	12189	3967.437681732626	1
0	12196	3970.01908867267	0
0	12207	3971.107951465178	1
0	12209	3971.635281644644	0
0	12215	3974.374063479111	1
0	12219	3976.309007684388	0
0	12231	3977.283362863221	1
0	12236	3980.105391373266	2
0	12238	3982.019259775419	1
0	12243	3984.609450928921	0
0	12266	3992.238671010828	1
0	12267	3994.479463253034	0
0	12292	4002.887052899818	1
0	12295	4004.485347385284	0
0	12304	4005.335917773472	1
0	12308	4006.046334509809	2
0	12310	4007.257161656187	3
0	12312	4008.378234782601	2
0	12321	4010.203756136936	3
0	12322	4013.19664628233	2
0	12327	4013.317058825333	1
0	12335	4014.435116405148	2
0	12337	4016.077962610454	1
0	12344	4019.766204302666	0
0	12351	4020.130777237086	1
0	12358	4020.974623059031	2
0	12360	4021.039613284798	3
0	12361	4021.313447740266	2
0	12368	4025.550414873351	1
0	12373	4026.116364414918	0
0	12390	4030.144214209346	1
0	12393	4034.641630062015	0
0	12405	4036.184636750955	1
0	12407	4036.996283686679	2
0	12409	4037.589913503034	3
0	12411	4037.808939538966	4
0	12412	4041.822877699669	3
0	12418	4041.899510393632	4
0	12420	4042.62779847894	5
0	12423	4046.502388367428	4
0	12431	4054.711583422024	5
0	12432	4054.864209550123	4
0	12437	4055.146049390355	3
0	12444	4058.187487039235	2
0	12454	4062.504545503086	3
0	12455	4062.577341172143	2
0	12460	4063.112755759398	1
0	12465	4065.930162961036	0
0	12472	4066.557058068546	1
0	12475	4066.702519350089	2
0	12479	4068.431148014741	1
0	12484	4068.514649881553	0
0	12492	4070.192189427131	1
0	12494	4070.582271008681	2
0	12495	4071.064749136646	1
0	12500	4071.161850510954	0
0	12512	4073.718092565626	1
0	12514	4073.873644227353	2
0	12516	4073.978525547929	3
0	12517	4074.391574298668	2
0	12522	4074.534367014165	1
0	12531	4076.481680936113	2
0	12533	4079.326977521398	3
0	12534	4079.693605242402	2
0	12539	4081.332234056857	1
0	12547	4085.419248476635	2
0	12552	4086.759308491618	3
0	12556	4088.123655581289	4
0	12557	4089.745749430032	3
0	12565	4091.552978766338	2
0	12572	4092.634878605421	1
0	12578	4093.512569324774	2
0	12580	4094.380268860323	3
0	12583	4095.494708400672	2
0	12589	4097.464791714139	1
0	12595	4097.647932956461	2
0	12597	4099.397406981505	3
0	12601	4102.644488708225	2
0	12609	4102.764505048554	3
0	12610	4102.817097216191	2
0	12614	4103.014049655961	3
0	12618	4105.037984819899	4
0	12622	4107.526698334714	3
0	12627	4107.659133356792	2
0	12635	4110.677035806447	1
0	12640	4111.245542250598	0
0	12695	4130.952905643147	1
0	12699	4131.471209786771	2
0	12700	4131.962522914045	1
0	12705	4132.118400742227	0
0	12718	4135.422176722868	1
0	12722	4135.876332005313	2
0	12723	4137.15137381108	1
0	12730	4138.873068196942	2
0	12731	4139.331586030088	1
0	12736	4139.365197644762	0
0	12745	4139.67144111871	1
0	12750	4145.239515048311	0
0	12757	4145.399001878707	1
0	12759	4145.623132089933	2
0	12760	4146.318686801159	1
0	12765	4146.607591560357	0
0	12794	4158.765252858311	1
0	12795	4159.312300282418	0
0	12812	4162.946084350193	1
0	12816	4163.560755589024	2
0	12818	4163.697546323868	3
0	12822	4164.529754357393	2
0	12827	4166.912697886424	1
0	12835	4170.194787300936	2
0	12838	4170.454542161585	1
0	12843	4172.007654060381	0
0	12850	4172.347562346481	1
0	12851	4172.66464885002	0
0	12863	4174.226908865916	1
0	12866	4175.034370094568	0
0	12874	4176.74026712837	1
0	12876	4176.989162408288	2
0	12877	4177.541233318967	1
0	12883	4177.824109976439	2
0	12884	4178.620950601009	1
0	12891	4181.722236977576	0
0	12902	4182.153547678716	1
0	12905	4182.778719986078	0
0	12912	4183.759413977122	1
0	12914	4185.303404775274	2
0	12915	4185.758348863134	1
0	12921	4187.24033171817	0
0	12951	4196.823475577974	1
0	12955	4197.739346378742	2
0	12957	4199.709177037313	3
0	12960	4201.053306772042	2
0	12967	4201.315897580991	3
0	12972	4204.98646501955	4
0	12974	4206.03126439437	3
0	12979	4206.468082475336	2
0	12990	4209.365709973844	3
0	12992	4209.837222132146	2
0	12998	4210.710202197976	1
0	13005	4214.938715269116	0
0	13027	4220.146629411863	1
0	13029	4220.483878475524	2
0	13030	4222.956765285251	1
0	13035	4224.537070058046	0
0	13048	4229.526891818739	1
0	13049	4229.924805660191	0
0	13068	4233.475646534792	1
0	13069	4237.986062938727	0
0	13075	4238.240400663671	1
0	13076	4238.677407006099	0
0	13104	4252.366579201297	1
0	13107	4253.482980116368	0
0	13116	4255.279263536777	1
0	13121	4256.271937456128	0
0	13148	4261.370258226271	1
0	13150	4261.764420274033	2
0	13151	4262.911258707803	1
0	13157	4263.382586042735	0
0	13171	4264.165375025444	1
0	13173	4264.795758514481	2
0	13180	4271.611078114648	1
0	13189	4274.49130445081	0
0	13200	4275.989505741413	1
0	13202	4276.580683183508	2
0	13205	4277.297109259658	1
0	13211	4279.547932087133	0
0	13225	4281.845265157662	1
0	13227	4282.460496670469	0
0	13240	4284.856854776282	1
0	13241	4285.17461521905	0
0	13263	4289.787643363237	1
0	13264	4290.11177296595	0
0	13286	4296.342941589596	1
0	13289	4304.302927320777	0
0	13298	4305.291099327701	1
0	13300	4306.11988382928	2
0	13305	4311.181936164807	1
0	13310	4311.443366988618	0
0	13316	4312.744036481804	1
0	13320	4314.001855219228	2
0	13321	4314.470412564429	1
0	13329	4317.134478916976	0
0	13369	4330.840576751551	1
0	13371	4331.008855632342	2
0	13372	4331.517196621896	1
0	13381	4333.239202521262	2
0	13386	4338.28164194889	1
0	13396	4340.624035041472	2
0	13397	4342.387953855905	1
0	13403	4342.945659041323	0
0	13416	4347.084547133815	1
0	13419	4352.689317026281	2
0	13420	4354.524108853254	1
0	13425	4354.699009400337	0
0	13431	4354.916382609577	1
0	13432	4355.780499458447	0
0	13443	4357.569459500414	1
0	13446	4358.714519819135	0
0	13462	4364.628340125591	1
0	13464	4365.089294093271	2
0	13466	4368.946070772352	3
0	13471	4372.549443887924	2
0	13477	4373.038325942292	3
0	13478	4373.339173417249	2
0	13485	4374.659018026578	3
0	13486	4376.322139727391	2
0	13493	4376.64328783637	3
0	13498	4377.148771073899	2
0	13504	4377.80395830139	3
0	13505	4378.26449835095	2
0	13511	4379.352304045249	1
0	13516	4379.381953499499	0
0	13522	4380.403852769645	1
0	13523	4381.864281329698	0
0	13559	4396.784011326808	1
0	13561	4400.477366618757	2
0	13562	4401.139109239677	1
0	13569	4403.702080589133	0
0	13591	4409.058495994998	1
0	13594	4411.315213479702	0
0	13614	4420.298842247331	1
0	13615	4423.836062406224	0
0	13629	4428.499546578574	1
0	13632	4429.575146715427	0
0	13640	4431.031314482098	1
0	13641	4431.053146707529	0
0	13653	4433.822269948545	1
0	13655	4434.676441966712	2
0	13657	4436.585897536887	3
0	13658	4437.557128442561	2
0	13664	4438.135161934065	1
0	13670	4439.165661396084	0
0	13679	4442.778658662297	1
0	13684	4447.543880714347	2
0	13686	4447.714700665047	3
0	13688	4450.072064302507	4
0	13692	4450.668190753951	5
0	13695	4452.910471280135	4
0	13701	4452.966620164349	5
0	13702	4454.391138548525	4
0	13710	4456.665963511391	3
0	13717	4457.580592641142	4
0	13718	4457.750242066984	3
0	13725	4459.798772792451	2
0	13731	4459.962279284663	3
0	13733	4461.051252344154	4
0	13735	4461.22813443356	3
0	13740	4461.411012335365	2
0	13746	4462.245405970789	1
0	13753	4463.187707976214	2
0	13754	4463.864302862568	1
0	13760	4467.142102813352	2
0	13762	4467.747749949054	3
0	13763	4470.735305754974	2
0	13769	4474.82748697665	3
0	13775	4479.711058924819	2
0	13780	4480.394818957509	1
0	13786	4481.730044246806	0
0	13802	4489.200501455315	1
0	13804	4491.841371396885	2
0	13805	4491.85240477172	1
0	13811	4493.358106060263	0
0	13838	4498.079518960652	1
0	13840	4498.621824483974	2
0	13841	4498.683484238447	1
0	13848	4499.140032616845	2
0	13852	4499.878484676704	1
0	13860	4501.935178152115	0
0	13866	4501.979780840521	1
0	13874	4504.985565678771	2
0	13875	4505.723867018999	1
0	13880	4505.985283874861	0
0	13890	4507.785673519652	1
0	13891	4508.543604022594	0
0	13930	4518.028673536391	1
0	13935	4519.469788170524	0
0	13941	4519.917187033517	1
0	13947	4521.342854397419	2
0	13949	4522.615454941939	3
0	13950	4524.825362215525	2
0	13957	4526.944036236915	3
0	13959	4530.717511701695	4
0	13961	4531.371533600621	5
0	13963	4531.776822909978	6
0	13966	4538.212825975002	5
0	13974	4538.566090583104	6
0	13977	4540.102578604225	7
0	13978	4540.38446415194	6
0	13985	4541.710653578367	5
0	13990	4541.972232666489	4
0	13995	4542.291574226741	3
0	14002	4546.404291292902	2
0	14008	4547.077476023716	3
0	14010	4547.448609411202	4
0	14011	4548.351319848595	3
0	14017	4549.785513821167	4
0	14021	4550.739267432423	5
0	14027	4552.162396837029	6
0	14030	4553.136152369223	5
0	14037	4553.809426172298	4
0	14045	4558.190499905321	5
0	14047	4559.838021348984	6
0	14049	4560.565995823748	7
0	14053	4563.07330376637	8
0	14059	4564.876095142167	9
0	14061	4566.176439388302	10
0	14062	4568.621062943632	9
0	14071	4572.094592509002	10
0	14075	4574.645090500715	11
0	14077	4576.897392710753	12
0	14078	4577.841428597369	11
0	14085	4580.303620317934	12
0	14086	4581.362390995323	11
0	14093	4582.496424004263	12
0	14098	4584.450613527063	13
0	14100	4585.413796964102	14
0	14102	4587.96964320785	15
0	14108	4591.37641697943	16
0	14113	4592.594155177998	15
0	14120	4592.986996727864	16
0	14122	4593.251239049079	17
0	14124	4593.675778947566	18
0	14125	4594.032065212524	17
0	14131	4594.167511509378	18
0	14133	4594.200369634361	19
0	14138	4597.674451510946	20
0	14142	4600.391875344747	19
0	14148	4603.768903656633	18
0	14155	4604.561582309629	19
0	14156	4605.196075023756	18
0	14162	4605.754456687988	17
0	14168	4609.767406466958	16
0	14173	4610.53252167306	15
0	14178	4610.72367648252	14
0	14190	4614.945590323946	13
0	14196	4615.06906611839	14
0	14198	4615.484074650067	15
0	14199	4615.580605957613	14
0	14208	4616.63734426335	15
0	14210	4616.951492209033	16
0	14212	4617.878324197498	17
0	14215	4620.150885494566	18
0	14216	4620.405256408975	17
0	14222	4622.049972371276	16
0	14227	4622.150060602155	15
0	14232	4622.218041886539	14
0	14240	4623.102130074537	15
0	14243	4623.428871989689	14
0	14247	4624.352525217378	15
0	14252	4628.050594689599	14
0	14258	4631.455267132798	15
0	14263	4634.673694829654	14
0	14271	4635.776891266483	15
0	14278	4638.182444057568	14
0	14283	4640.863047729082	13
0	14290	4642.850197102041	12
0	14295	4643.734266611148	11
0	14300	4644.362348911138	10
0	14306	4647.4130731813	9
0	14313	4649.06124520031	8
0	14319	4650.333610420018	9
0	14320	4652.418334363724	8
0	14324	4652.583686102441	9
0	14330	4654.770119162027	10
0	14335	4655.280327309602	9
0	14340	4655.846578490336	8
0	14345	4658.754518723717	7
0	14353	4664.161035473594	6
0	14360	4666.696974562906	7
0	14361	4667.030966193219	6
0	14367	4667.173009726427	7
0	14370	4669.212797706856	6
0	14376	4670.036039362915	7
0	14380	4670.686730776944	6
0	14386	4673.649606140459	5
0	14391	4674.129110902204	4
0	14397	4675.635424561194	3
0	14404	4678.763827999996	2
0	14409	4678.775834311961	1
0	14414	4678.855270261792	0
0	14429	4679.714685594871	1
0	14430	4681.009506898916	0
0	14444	4684.072536980124	1
0	14445	4684.212087018164	0
0	14458	4687.331865925032	1
0	14460	4687.794076754499	2
0	14461	4690.237693855729	1
0	14469	4692.119949354446	0
0	14476	4694.234451934906	1
0	14478	4694.378883127149	2
0	14485	4696.970042416355	1
0	14493	4698.557238419315	2
0	14497	4700.823459092575	3
0	14499	4702.169339506478	4
0	14502	4703.37762663015	3
0	14507	4703.754224946346	2
0	14516	4704.480331660479	1
0	14522	4704.956470061425	2
0	14523	4705.127567215144	1
0	14529	4706.280619830046	0
0	14579	4719.601891185257	1
0	14581	4720.519170657724	2
0	14582	4722.92173623398	1
0	14587	4723.334306843968	0
0	14606	4728.31067817586	1
0	14608	4728.493576823077	2
0	14610	4729.631593830172	3
0	14612	4729.693799416161	4
0	14613	4729.818535784544	3
0	14620	4731.444920371923	4
0	14622	4731.840656141566	5
0	14623	4732.125838290883	4
0	14629	4732.604446575917	5
0	14635	4734.326753307439	4
0	14642	4735.459618924089	5
0	14644	4736.220950466055	6
0	14645	4738.302359923574	5
0	14651	4742.973434665521	4
0	14656	4743.515626452419	3
0	14661	4743.702565181688	2
0	14666	4743.80859621353	1
0	14678	4748.741625837128	0
0	14686	4750.175260829845	1
0	14687	4754.268090709356	0
0	14693	4754.292727391478	1
0	14694	4754.679342789803	0
0	14702	4755.857629839486	1
0	14704	4756.051382708199	2
0	14707	4757.095057962834	1
0	14715	4758.32699381848	2
0	14716	4758.990228729698	1
0	14722	4759.274404359926	2
0	14725	4761.711551244828	3
0	14728	4764.619447038501	2
0	14733	4764.717699975578	1
0	14740	4767.488327705175	0
0	14751	4768.874370319592	1
0	14755	4771.978188221984	0
0	14777	4781.604531542447	1
0	14780	4782.512208621794	0
0	14795	4786.917488932274	1
0	14799	4787.192828418703	2
0	14801	4787.397544691182	3
0	14802	4787.97961955061	2
0	14809	4789.136320579243	3
0	14811	4791.774635196262	4
0	14814	4792.752544832515	3
0	14821	4794.05528124825	2
0	14826	4794.306302653572	1
0	14831	4794.357300979457	0
0	14867	4810.642854127851	1
0	14868	4811.317471001786	0
0	14883	4814.892498116491	1
0	14888	4816.846021078364	0
0	14894	4817.237432822048	1
0	14900	4818.604585174581	0
0	14921	4823.437475074347	1
0	14923	4825.874025297329	2
0	14926	4827.147104182556	1
0	14932	4828.097760226327	0
0	14949	4837.034338120492	1
0	14951	4837.036373816656	2
0	14957	4837.988076697933	1
0	14962	4838.039146359829	0
0	14987	4840.110921300982	1
0	14989	4842.375207673084	0
0	14995	4842.429853620543	1
0	14997	4844.320411555101	0
0	15003	4844.507803623616	1
0	15004	4846.792009683815	0
0	15024	4852.55483194693	1
0	15026	4853.059947524816	2
0	15028	4853.523812244642	3
0	15032	4855.490644957672	4
0	15034	4855.593127325937	5
0	15036	4855.603494312926	6
0	15037	4856.300674015345	5
0	15044	4857.141903545355	6
0	15050	4860.289543808497	7
0	15054	4861.591114453312	8
0	15055	4862.555838181603	7
0	15063	4864.188971279175	6
0	15072	4865.851463308175	5
0	15081	4867.139848862356	6
0	15082	4868.095562677638	5
0	15087	4868.463317776882	4
0	15092	4871.207550287954	3
0	15098	4871.663504668473	4
0	15100	4872.736722199287	5
0	15103	4873.885193400175	6
0	15106	4875.312362732692	7
0	15108	4876.695865693633	6
0	15115	4878.033548240025	7
0	15116	4879.131042050701	6
0	15122	4879.254685261553	7
0	15123	4880.667347438691	6
0	15130	4881.738735336045	7
0	15132	4882.163739492975	8
0	15134	4884.705765768476	7
0	15140	4886.346654215555	6
0	15145	4887.978823105506	5
0	15151	4889.251245605094	4
0	15158	4890.626463404399	5
0	15160	4891.619301217648	6
0	15161	4891.880937676279	5
0	15170	4894.935522340287	4
0	15176	4898.58115979354	3
0	15185	4901.911796497017	4
0	15186	4903.088035070422	3
0	15191	4903.948616186307	2
0	15198	4905.444991873335	1
0	15206	4906.023163833458	2
0	15208	4906.343061053266	3
0	15210	4909.168815887001	2
0	15215	4909.791208666684	1
0	15220	4910.423543577752	0
0	15250	4919.718672562575	1
0	15258	4927.200683880609	0
0	15279	4936.112349517425	1
0	15280	4936.230507003967	0
0	15299	4940.448608945647	1
0	15303	4943.348834523915	2
0	15305	4944.649937550067	3
0	15306	4945.058858275654	2
0	15311	4945.977084291182	1
0	15318	4946.473567391885	0
0	15324	4947.193334169516	1
0	15329	4948.632687502197	2
0	15330	4950.233853065709	1
0	15334	4950.247140506467	2
0	15336	4950.574776884011	3
0	15341	4953.336044105263	2
0	15352	4954.777253697104	1
0	15358	4956.991633111365	0
0	15364	4957.320909801816	1
0	15365	4958.220697437904	0
0	15369	4958.437900325982	1
0	15371	4958.641260264051	2
0	15375	4959.852413327554	1
0	15382	4960.767638726281	2
0	15384	4961.226840684	3
0	15385	4961.831645256445	2
0	15390	4963.165574962341	1
0	15396	4965.424183756687	2
0	15398	4966.952536861665	3
0	15404	4968.940826414134	4
0	15405	4969.397516793649	3
0	15413	4972.917471579615	4
0	15414	4973.340439509607	3
0	15420	4974.620259763524	4
0	15422	4976.405107031218	5
0	15429	4982.219448614183	6
0	15430	4983.043183368954	5
0	15436	4984.163410239006	4
0	15444	4986.027989169867	5
0	15445	4986.060657657526	4
0	15450	4986.813338121048	3
0	15456	4987.200753831581	4
0	15457	4988.080356255687	3
0	15461	4988.459317765913	4
0	15465	4989.885909896529	3
0	15472	4990.639871082517	4
0	15473	4991.186978737961	3
0	15479	4992.691643158599	2
0	15485	4994.325209816119	3
0	15489	4997.263551206677	2
0	15494	4997.550074658544	1
0	15498	4997.886607763965	2
0	15502	4998.692439385106	3
0	15504	4999.177227698947	4
0	15508	5003.193660193724	3
0	15514	5003.956821882893	4
0	15521	5008.162455531897	5
0	15525	5008.585769344428	6
0	15526	5009.363611308883	5
0	15532	5010.085333657496	4
0	15538	5013.679893774816	5
0	15540	5014.046304618295	6
0	15542	5015.396151296844	7
0	15544	5015.421576844241	8
0	15545	5016.365832911788	7
0	15552	5017.698558123239	8
0	15554	5021.007988873336	7
0	15559	5021.269404049882	6
0	15565	5022.306664803549	5
0	15571	5023.039197407549	6
0	15575	5027.726849520974	7
0	15576	5030.423951734882	6
0	15581	5031.603104667216	5
0	15586	5032.190110989587	4
0	15594	5035.28408536413	5
0	15596	5036.502763917183	6
0	15598	5037.001657865469	7
0	15600	5038.217838627412	8
0	15602	5039.201550083804	9
0	15603	5040.170617455735	8
0	15607	5041.796002306598	9
0	15609	5044.674898814835	10
0	15612	5047.628893117011	9
0	15616	5048.125940321534	10
0	15621	5051.681858294193	9
0	15628	5054.918645435663	8
0	15633	5056.385038234588	7
0	15641	5058.282058050981	6
0	15647	5059.423737374167	5
0	15655	5062.089973476388	4
0	15662	5064.359601302251	5
0	15663	5064.954208527485	4
0	15668	5066.008025130177	3
0	15672	5066.538143146674	4
0	15674	5066.885984455009	5
0	15677	5067.172377883508	4
0	15683	5068.23310587696	5
0	15686	5070.377752062519	4
0	15690	5070.616932506137	5
0	15692	5074.271359556457	6
0	15694	5075.420762004235	7
0	15701	5078.63043621927	8
0	15704	5079.992356578268	7
0	15712	5082.54905915517	6
0	15718	5082.748294198195	7
0	15719	5084.119870819638	6
0	15724	5084.262758556456	5
0	15731	5087.101253765267	4
0	15740	5091.667489540925	3
0	15750	5096.147292680534	2
0	15755	5096.255362884138	1
0	15762	5097.643244139731	0
0	15777	5101.278161850254	1
0	15779	5101.808139236083	2
0	15781	5101.975621572996	3
0	15786	5103.252904931471	2
0	15792	5104.020795075659	3
0	15795	5105.648436763556	4
0	15796	5105.827192420782	3
0	15801	5106.68504030927	2
0	15807	5106.859286053017	3
0	15808	5108.026516182448	2
0	15814	5110.87679744637	1
0	15820	5112.347914728501	0
0	15834	5114.771480152853	1
0	15837	5115.771069066736	2
0	15842	5117.634479713714	3
0	15844	5119.453401004653	4
0	15845	5120.224204154745	3
0	15851	5122.367445469934	4
0	15854	5123.104138514084	5
0	15856	5123.900716789951	6
0	15859	5125.028802770055	5
0	15864	5125.086823136124	4
0	15870	5125.920457401438	5
0	15873	5126.764413474007	6
0	15874	5127.249691752017	5
0	15882	5129.461091349641	4
0	15891	5131.273271901253	3
0	15897	5132.41056115218	4
0	15900	5137.199125898982	3
0	15905	5137.199689791556	2
0	15910	5137.304417012234	1
0	15915	5137.826582368358	0
0	15948	5143.762565883691	1
0	15953	5145.241519504822	2
0	15954	5146.410786093435	1
0	15961	5149.734774670122	2
0	15962	5151.408843854374	1
0	15969	5152.001844093963	2
0	15975	5153.838727219414	3
0	15976	5154.361695790044	2
0	15981	5155.476784366742	1
0	15991	5157.134072870372	2
0	15993	5157.850094311419	3
0	15994	5160.047086011269	2
0	16001	5162.207471598098	1
0	16007	5166.886053617871	0
0	16017	5174.037271032444	1
0	16019	5174.241376004281	2
0	16020	5176.712592202641	1
0	16027	5178.14061926922	2
0	16028	5178.154593610436	1
0	16033	5180.850035929556	0
0	16044	5181.819844199137	1
0	16046	5183.656804506546	0
0	16063	5185.799122908714	1
0	16065	5186.410689046749	0
0	16088	5193.07631194703	1
0	16090	5193.107979676015	2
0	16093	5195.975854014345	1
0	16101	5197.366066289395	0
0	16119	5204.916605073861	1
0	16120	5205.761777737067	0
0	16148	5213.536129242249	1
0	16150	5214.199590751695	2
0	16151	5214.718038956677	1
0	16157	5218.113311748457	0
0	16173	5223.329460917784	1
0	16174	5226.44928570012	0
0	16183	5228.715663908346	1
0	16184	5230.637557260948	0
0	16206	5235.401497689852	1
0	16209	5242.474267263808	0
0	16224	5246.324332921718	1
0	16225	5249.157897301072	0
0	16238	5252.453291898072	1
0	16241	5254.645421926162	0
0	16263	5262.639569300946	1
0	16265	5263.056512572752	2
0	16267	5263.093835716477	3
0	16270	5265.0655156691	2
0	16275	5265.593834432887	1
0	16286	5269.902839550306	0
0	16319	5283.111085876211	1
0	16320	5283.603820941675	0
0	16339	5291.85227295425	1
0	16343	5298.022205694192	2
0	16345	5299.034467086949	3
0	16346	5303.413068589544	2
0	16352	5303.855076417874	3
0	16355	5304.751443203069	2
0	16362	5306.432442253006	1
0	16368	5306.651309608162	2
0	16371	5308.261685546292	1
0	16376	5308.84851935034	0
0	16388	5311.141400594542	1
0	16391	5311.878340003607	0
0	16414	5317.37660247881	1
0	16418	5325.62995662735	2
0	16419	5326.829713926571	1
0	16426	5329.714424215353	0
0	16444	5333.325434266852	1
0	16445	5333.531575019546	0
0	16463	5338.308229644133	1
0	16466	5339.672807495126	0
0	16473	5341.113317971106	1
0	16474	5341.565097992139	0
0	16491	5358.556486563034	1
0	16493	5359.344775075626	2
0	16497	5361.565742838951	3
0	16502	5362.527166977091	2
0	16507	5362.993586965526	1
0	16513	5363.631080609741	0
0	16532	5366.519749778799	1
0	16535	5367.735573435194	0
0	16546	5367.957525759122	1
0	16549	5368.221336625993	2
0	16551	5369.08549953263	1
0	16557	5369.592565237296	2
0	16558	5369.6021605004	1
0	16564	5370.491105409094	0
0	16575	5371.323797478464	1
0	16580	5372.770846089342	0
0	16592	5375.245217237914	1
0	16594	5375.710832881129	2
0	16596	5377.928081318379	3
0	16598	5378.90300622178	4
0	16600	5380.045295284363	3
0	16605	5380.261033316381	2
0	16612	5380.681002183272	3
0	16614	5384.738200734753	2
0	16620	5385.456767534211	3
0	16622	5387.319993056094	2
0	16634	5389.814602120114	3
0	16636	5390.004017606335	4
0	16638	5391.061286907002	5
0	16639	5391.107794406061	4
0	16644	5391.370193062866	3
0	16652	5394.401830650938	4
0	16653	5395.507935147576	3
0	16660	5396.546318684699	4
0	16661	5397.554573443836	3
0	16668	5401.567152645484	4
0	16671	5404.76343444662	3
0	16678	5406.249381751577	4
0	16680	5406.695144841833	5
0	16681	5407.805097796829	4
0	16687	5408.348863667392	3
0	16693	5408.582871023376	4
0	16694	5408.713437248502	3
0	16700	5411.468236579054	4
0	16702	5413.418500836963	5
0	16704	5414.126406901809	6
0	16706	5414.997912143525	7
0	16708	5415.540581297149	8
0	16710	5416.508612038331	9
0	16711	5416.838197253145	8
0	16719	5418.957149887407	7
0	16724	5420.573321155479	6
0	16732	5423.356311993147	7
0	16733	5423.846982414895	6
0	16737	5425.503521594776	7
0	16744	5429.876738465488	6
0	16749	5430.350295050146	5
0	16755	5432.274429585062	6
0	16761	5435.211400796955	5
0	16767	5435.935184534729	6
0	16771	5437.588245248737	5
0	16777	5439.241365934679	4
0	16788	5442.038922783445	5
0	16789	5442.179631983072	4
0	16797	5447.172466168012	3
0	16804	5449.904384900046	2
0	16813	5453.176942778521	3
0	16814	5453.224095353703	2
0	16819	5454.203046173161	1
0	16825	5454.965404478485	2
0	16826	5455.706120899315	1
0	16832	5460.238375710414	0
0	16852	5467.208787348819	1
0	16854	5467.326518244178	2
0	16857	5468.82384060725	1
0	16863	5470.118129242093	0
0	16878	5472.86251403977	1
0	16887	5474.987475635564	2
0	16889	5475.64450427002	3
0	16890	5475.655251875497	2
0	16895	5475.78806179615	1
0	16900	5476.270538540974	0
0	16906	5476.35173485467	1
0	16907	5478.29303754326	0
0	16937	5490.301904199338	1
0	16940	5491.853200036467	0
0	16991	5516.032542145085	1
0	16993	5516.039181889126	2
0	16997	5517.38742923455	3
0	16999	5517.642953003625	4
0	17002	5520.486846699474	3
0	17007	5520.763623818595	2
0	17015	5521.51157163207	3
0	17020	5523.677872880744	2
0	17028	5527.218589972216	1
0	17033	5528.256995817408	0
0	17058	5535.274054244933	1
0	17060	5536.862804406983	2
0	17061	5536.901328830225	1
0	17067	5537.20541097913	2
0	17074	5542.287083246533	3
0	17075	5542.44837845107	2
0	17080	5543.089653401281	1
0	17087	5546.103856383185	2
0	17089	5546.481603883514	3
0	17093	5548.043985352364	2
0	17100	5549.081532680908	1
0	17106	5550.822081098138	0
0	17117	5552.642308400747	1
0	17119	5554.080702295024	2
0	17120	5554.131499574133	1
0	17126	5554.356801837481	2
0	17129	5555.817540489516	3
0	17130	5556.455334462174	2
0	17137	5557.417884934142	3
0	17139	5562.441612984904	2
0	17146	5564.36714986465	1
0	17152	5565.199476912562	2
0	17156	5565.993231433037	1
0	17163	5572.528354371291	2
0	17164	5572.933101592408	1
0	17171	5573.849826938924	2
0	17173	5573.952942239746	3
0	17175	5573.962101970835	4
0	17177	5578.214020338609	5
0	17178	5579.099128840259	4
0	17184	5579.106008158402	5
0	17185	5579.536124457807	4
0	17191	5579.842401660347	5
0	17194	5581.847866120657	4
0	17204	5585.098033942937	3
0	17209	5586.15415208487	2
0	17217	5586.681748085141	3
0	17219	5588.345327537726	4
0	17222	5589.558553415585	3
0	17227	5589.61658601547	2
0	17235	5590.677675701094	1
0	17241	5590.989558459183	2
0	17242	5595.471821300597	1
0	17252	5596.345613297017	2
0	17255	5599.16644206376	1
0	17260	5599.438405127441	0
0	17292	5603.844724846646	1
0	17293	5604.058417402907	0
0	17309	5606.30863421909	1
0	17311	5606.314356361459	2
0	17312	5607.685423921436	1
0	17317	5607.715298193397	0
0	17347	5613.475110283447	1
0	17350	5616.841750282535	0
0	17366	5622.133139402057	1
0	17368	5623.307539573936	2
0	17370	5623.499844180254	3
0	17372	5623.793838815369	4
0	17373	5624.800983177818	3
0	17379	5625.448054510696	4
0	17383	5630.026671882944	3
0	17388	5630.827289206518	2
0	17401	5633.802818875804	3
0	17402	5640.28571792185	2
0	17407	5640.862125579817	1
0	17413	5641.883180578839	0
0	17433	5643.587440888823	1
0	17435	5644.691948522295	0
0	17470	5653.61355027667	1
0	17471	5653.721228714568	0
0	17488	5658.741313749186	1
0	17489	5663.121184475062	0
0	17498	5664.045727283086	1
0	17501	5666.693837997599	0
0	17513	5669.715635650383	1
0	17515	5670.767764840861	2
0	17517	5671.607415417349	3
0	17519	5672.65184045356	4
0	17522	5673.407016780709	3
0	17528	5675.237455177691	4
0	17530	5675.419133467655	3
0	17535	5675.432432490778	2
0	17540	5676.428310732093	1
0	17545	5676.750642267649	0
0	17549	5678.053016480454	1
0	17556	5679.732951445146	0
0	17562	5679.739384277243	1
0	17564	5680.017721914417	0
0	17570	5680.723746160416	1
0	17572	5680.995598733167	2
0	17576	5682.298922900804	1
0	17583	5683.663480254827	2
0	17584	5683.912606930476	1
0	17595	5686.942567402268	0
0	17618	5689.71076655671	1
0	17620	5689.747674445022	2
0	17622	5690.388003699978	3
0	17624	5691.092162101485	4
0	17625	5692.056346630088	3
0	17631	5692.071137412824	4
0	17633	5692.121647649577	5
[...]
5	84170	28152.353425499963	18.507183030772
5	84188	28161.482871371692	26.127841125375
5	84195	28161.553136995002	25.62435032777
5	84209	28167.938439813053	30.1454334942
5	84214	28168.358027004562	23.92461284674
5	84228	28170.925239029632	25.723286921674
5	84233	28172.079074328055	24.233882717278
5	84240	28176.010609208753	26.897445404752
5	84246	28181.081942820078	28.217427522581
5	84251	28181.322627038243	27.378680889034
5	84263	28189.447830818355	32.642954450155
5	84269	28191.67486321591	34.444713869736
5	84277	28192.659444431364	35.21177807149
5	84283	28193.000933293871	33.878284074988
5	84291	28194.811228004887	31.205920557046
5	84300	28204.040153479476	34.659862621098
5	84305	28204.783533642928	34.819260956249
5	84310	28205.316765508633	32.382053538665
5	84324	28209.115107150855	26.563287305551
5	84336	28215.948350511402	22.180858960241
5	84341	28216.078466106777	15.142733964885
5	84346	28217.486038484992	14.307412190935
5	84351	28218.074257567881	10.595470488233
5	84358	28221.99437894488	13.427528865338
5	84366	28226.784243945836	14.767635280322
5	84371	28227.538944908935	15.025151558127
5	84377	28227.738675464962	4.693000333544
5	84397	28230.897680479976	3.03485284777
5	84409	28235.364965760005	7.406677535741
5	84415	28237.935887806741	9.974363276229
5	84420	28238.08583487344	7.950703359076
5	84427	28241.079345376733	9.919696926134
5	84443	28251.436366710929	18.350760491665
5	84448	28251.56101096185	16.496188657356
5	84455	28252.641053564432	10.113646667858
5	84469	28257.440926115875	14.591764339771
5	84475	28259.505853275053	16.573050128849
5	84482	28262.231214587422	18.101930529721
5	84489	28263.7235160278	12.325692616782
5	84497	28265.233875302295	13.207052540221
5	84502	28266.035252361102	12.784668386417
5	84517	28269.237868212609	15.429468939651
5	84523	28271.452294098926	15.517387393919
5	84532	28274.200761580777	10.235482194766
5	84539	28275.998985621469	9.176877285692
5	84545	28279.525968921848	11.940673218926
5	84550	28280.156448924714	6.491011136608
5	84567	28290.244653611931	16.510129229105
5	84574	28295.169233595657	14.087395989811
5	84588	28298.365444368495	10.636822407242
5	84599	28301.793343170212	13.222972710873
5	84604	28302.006005547286	6.649635632052
5	84613	28304.000657506581	7.467787886343
5	84619	28304.770578524897	3.49632630739
5	84626	28307.427195285829	3.545175089336
5	84631	28309.184392965703	3.425807032056
5	84677	28319.286083605048	4.626493983742
5	84682	28319.494001541531	4.552948546011
5	84690	28324.222462148304	5.999882519491
5	84695	28325.019353217452	1.51210836773
5	84717	28333.25060783823	1.399105821658
5	84743	28342.955982720939	4.70900006021
5	84754	28355.677412229523	12.7394710903
5	84776	28361.902627500083	4.535470573035
5	84785	28363.262459153088	4.381260181482
5	84797	28369.203036252018	6.570970130654
5	84803	28370.839153809691	7.115991135496
5	84808	28371.275443861016	3.23771598798
5	84832	28380.344591848687	8.089529068513
5	84841	28381.333914715513	7.587155512228
5	84846	28381.337154323911	4.824388157985
5	84851	28384.979701281774	4.294936489461
5	84870	28391.868353129824	5.587749011603
5	84880	28397.522704393812	7.313592979738
5	84886	28399.512979283187	8.664303074452
5	84933	28418.316171683072	6.849672703284
5	84940	28418.784021406149	6.729951047966
5	84954	28422.268998942047	9.197451855192
5	84967	28429.06536399547	12.612795000474
5	84973	28430.005847982663	8.494627955187
5	84979	28431.646246690018	9.865013796851
5	84987	28436.048373468538	10.577001937163
5	84992	28436.544485797713	10.126665442291
5	85000	28441.072021108	7.164719464172
5	85013	28443.730671254738	3.435024644893
5	85028	28455.175872741571	13.327067027085
5	85034	28459.191053210902	17.02850424
5	85040	28460.447335781721	17.593850521705
5	85046	28462.449481413043	15.709774645983
5	85060	28465.949400638988	18.52912760002
5	85068	28470.837104282067	8.163926727475
5	85077	28472.423556025245	7.347666763531
5	85082	28472.5820168627	7.235468215607
5	85089	28474.761119510816	3.680558867292
5	85096	28476.944923700428	4.755762399016
5	85102	28478.465540370546	4.844010615147
5	85114	28482.147287921243	7.348184864852
5	85119	28484.774664386829	6.08182909614
5	85130	28489.256942345373	7.519674698156
5	85139	28494.789331950545	6.609744044787
5	85145	28495.255604304715	1.851398138722
5	85162	28496.619081241812	0.095860825099
5	85201	28511.405593181766	1.911069531434
5	85220	28516.787324041113	2.255065524348
5	85241	28519.94853432631	3.155218771313
5	85250	28520.295585452872	3.184019833607
5	85277	28531.307794348467	12.962220296438
5	85286	28539.75938960221	19.535011494869
5	85295	28540.371474450201	19.09813771929
5	85303	28542.865890173155	21.195587749448
5	85313	28550.852140724865	25.975836378503
5	85321	28553.658438182757	19.836091487446
5	85331	28554.956241330453	5.841999108439
5	85339	28556.703746988959	2.276397416873
5	85344	28556.790604480577	2.078733657341
5	85368	28565.106934852555	4.746517826057
5	85374	28566.068533760546	4.166552958959
5	85380	28567.963375436135	5.367637153373
5	85387	28568.757567099675	5.07103741572
5	85394	28570.288931948253	1.885359813942
5	85415	28579.061592454029	3.935043366438
5	85438	28589.321946861245	5.420922928962
5	85443	28589.740483134162	4.637825347364
5	85448	28589.978787837136	4.616362930637
5	85459	28594.822453077011	5.916205291199
5	85469	28598.233469737581	3.98387096945
5	85482	28600.381730975002	1.863954452218
5	85516	28606.459625925804	3.597734825041
5	85531	28617.636308999288	4.60371108247
5	85553	28625.114393701807	3.729447385647
5	85567	28630.870113423764	9.191726336776
5	85573	28631.455030303886	5.838282099181
5	85589	28634.727703900881	2.938765886662
5	85596	28634.956672851592	0.744441936678
5	85602	28635.462597547251	0.592000249191
5	85633	28643.156093239025	6.123548016658
5	85642	28649.176108911013	10.920289403923
5	85648	28651.570936856225	9.468782251855
5	85655	28654.141419560953	9.117961687941
5	85660	28656.26212880811	4.259973705266
5	85689	28668.285834586156	7.454194095736
5	85712	28672.796081690347	3.448119173453
5	85720	28675.240592714119	5.281897749466
5	85734	28682.928802944513	12.611945393745
5	85740	28686.658181914145	11.232691366128
5	85746	28687.067397335294	9.362661517382
5	85766	28695.531861964828	5.19508137844
5	85774	28701.604230278386	10.557505821481
5	85786	28703.588664152503	3.597723690258
5	85794	28705.105197248307	3.378843646266
5	85803	28707.259048896316	3.896733387229
5	85808	28707.302456021543	3.25784436054
5	85853	28730.7028056451	1.850061571478
5	85858	28730.747980483305	1.760552549675
5	85899	28750.521023519166	2.309231211456
5	85908	28753.334688554576	3.379907491045
5	85926	28759.505225713029	2.684421779655
5	85949	28770.382621809566	7.835477026346
5	85954	28770.407441768376	6.813793831863
5	85967	28773.991104727986	5.884298486636
5	85974	28775.922053071975	4.853733897817
5	85979	28776.206918713175	4.402200486218
5	85985	28778.459800214296	4.993769063931
5	86016	28788.591995052175	10.127447750655
5	86021	28788.606959090269	5.816219005438
5	86026	28788.747698718809	4.660881247083
5	86043	28790.731871021381	4.715583748003
5	86048	28790.895098190795	3.084949569808
5	86060	28795.134101352904	6.974448602734
5	86068	28797.378895551467	7.818091132604
5	86077	28799.401750620041	9.554503908806
5	86082	28799.757490983205	9.594523719789
5	86087	28799.981252326899	9.420432589448
5	86096	28805.888140672309	14.763469122353
5	86103	28808.377796285407	12.623256802118
5	86109	28811.348211570188	13.812970413391
5	86115	28813.390716566781	15.66382692463
5	86145	28827.942573170132	22.508547764508
5	86150	28828.652920466991	11.118689693328
5	86155	28829.458565618153	10.597281671277
5	86160	28829.99952910125	5.90191267292
5	86169	28834.413489141774	8.204461479544
5	86178	28836.099181121657	4.424977020257
5	86183	28837.065222853807	3.409444165762
5	86189	28840.120064011281	5.498880073119
5	86221	28849.714776614575	3.889357320993
5	86238	28860.60431161277	14.363637931933
5	86246	28865.008699540193	16.758792163739
5	86251	28865.076912059133	9.592353093299
5	86258	28866.689900738527	10.959191781563
5	86276	28870.778073994408	15.002478199779
5	86281	28871.360364204808	12.60064490796
5	86294	28876.040776676462	15.789502130921
5	86307	28881.889594315388	15.862262133177
5	86314	28883.912887437939	15.332637946393
5	86320	28885.724530337435	15.957822677913
5	86325	28887.085360769518	17.213918364902
5	86330	28890.560159382238	17.542289864076
5	86335	28891.228720810845	14.558974791762
5	86376	28897.232975839392	3.769742341267
5	86384	28898.978340058015	4.441274760251
5	86392	28901.176540967915	2.229084460636
5	86398	28904.317596230059	3.51893655654
5	86418	28912.86933376023	8.048676113032
5	86424	28913.809225571277	3.260395012382
5	86433	28915.240435455259	2.992397914112
5	86438	28915.770477626863	1.351665220637
5	86469	28930.116840254542	14.158516629185
5	86476	28935.52745989828	18.085298008761
5	86482	28938.001822174645	14.634623397505
5	86490	28943.604681340084	20.07906003558
5	86495	28944.220182109876	19.892648711216
5	86502	28947.985506878381	21.489326403227
5	86507	28948.037713869525	7.599775957799
5	86534	28961.904887207702	11.451022066327
5	86539	28964.588343114713	12.922509234514
5	86552	28967.627440627554	15.21702235079
5	86559	28968.237566681009	14.647559885099
5	86566	28971.184580494207	6.535387055589
5	86572	28972.089739611446	6.987307675347
5	86578	28972.487998673415	5.888655251351
5	86583	28972.631792004432	4.608512187293
5	86605	28979.696417484048	5.971979281013
5	86610	28979.807674327892	1.934147384712
5	86650	28990.311936519902	3.998109408887
5	86661	28992.3506988788	4.376208466444
5	86667	28993.59916972288	2.59158469536
5	86686	29000.477863400596	6.641169303525
5	86692	29002.385354350823	6.923921526368
5	86700	29004.866818209396	8.918981495251
5	86707	29006.43806987798	1.944831715038
5	86731	29017.250434098781	5.91235732592
5	86740	29019.555361866124	3.166767559121
5	86745	29020.217549484553	2.714429186986
5	86767	29031.314012609821	10.819301624174
5	86772	29031.397779103497	5.585843858377
5	86782	29032.667444558821	4.414008306903
5	86792	29037.159208265628	8.604917728953
5	86797	29039.5098341126	8.285039696564
5	86802	29039.592997986798	6.904299692344
5	86824	29052.718911884145	7.649873324395
5	86849	29060.510411467745	5.87155696384
5	86854	29061.011744779981	4.865287247681
5	86878	29073.515070784573	3.229689391105
5	86899	29082.909073894456	3.172154008592
5	86947	29097.872811130222	10.459492331523
5	86952	29097.901392782645	9.424557793631
5	86968	29103.312662770877	13.182369310317
5	86973	29103.68414223059	12.248673059204
5	86978	29104.410795234083	12.632412063755
5	86988	29110.074742264587	17.732814177409
5	87001	29115.354896721025	22.903895930402
5	87009	29117.091267511219	23.789300419934
5	87014	29118.533958542605	22.762354773889
5	87024	29119.443217163262	23.417852475922
5	87034	29123.03989113148	24.902405831741
5	87040	29123.23160437513	24.053151343222
5	87048	29124.752139525583	22.329196184573
5	87062	29132.372464757213	29.306697837674
5	87074	29139.310377227589	26.729572715407
5	87081	29139.439413234998	25.058045980623
5	87090	29141.383944102197	26.391002325449
5	87095	29141.482280196894	26.093637113717
5	87104	29143.756158763662	24.255836582796
5	87114	29148.797326612381	26.460635787972
5	87121	29149.344569364823	25.856217366393
5	87126	29150.474075340052	20.734861139294
5	87133	29153.605614770235	23.694951238351
5	87140	29158.585602644596	27.863435331209
5	87145	29159.251202824379	20.180689359599
5	87157	29162.335268129661	19.38835410267
5	87162	29164.108353393821	14.8608187485
5	87173	29167.044314502826	8.761652931647
5	87182	29172.630109740495	11.97177375935
5	87188	29172.957713987581	8.554471652294
5	87198	29177.463545173481	12.784255776768
5	87209	29181.610943460629	12.891180630994
5	87214	29182.570740393182	6.880461828652
5	87221	29183.428245580289	2.417662765411
5	87227	29184.683076408137	1.693537513301
5	87251	29197.396910110853	5.471049383968
5	87261	29199.092918116115	3.226453751595
5	87266	29199.098093230474	2.450244806746
5	87285	29202.829112779728	3.657750113726
5	87291	29204.859669866226	3.921483181127
5	87312	29208.136370993456	2.525184165695
5	87319	29208.39216886058	1.613943867899
5	87331	29210.428976923034	1.545501875109
5	87358	29229.245045324268	10.826006926217
5	87363	29231.016946611177	6.742436023413
5	87382	29240.631571420232	1.786519202657
5	87408	29252.449584590554	6.410195270465
5	87413	29254.832858873344	5.399609627789
5	87427	29256.208296847682	3.789261470501
5	87438	29259.356403547275	4.432913821633
5	87448	29262.292940416652	6.669982998204
5	87460	29272.831575336143	15.033871216837
5	87470	29278.828097192297	20.205513500389
5	87484	29284.046629185812	24.242251695746
5	87489	29284.133726008455	21.67413016245
5	87498	29286.146060762387	14.54423834141
5	87503	29286.690742754738	12.158693950289
5	87510	29287.400817359704	12.863190045832
5	87527	29291.651224186716	12.152911079872
5	87536	29291.89548177851	11.77668677756
5	87553	29304.057306166251	23.287657587385
5	87566	29316.68211368037	29.936531360835
5	87571	29318.566531307148	28.786127440348
5	87576	29318.820781106599	27.706618506421
5	87584	29319.56046632883	26.563395334138
5	87592	29323.150316536232	25.10759990555
5	87601	29323.554466308663	21.196573100169
5	87606	29324.259842648779	13.285912493737
5	87612	29324.438883943861	10.984640477859
5	87619	29324.935810495466	11.169412296158
5	87648	29338.929042092299	19.501437792385
5	87654	29339.313490999115	15.873598960979
5	87663	29341.701602250174	18.170459699519
5	87669	29343.508856984123	13.517535891756
5	87678	29345.178464347249	13.43108430523
5	87690	29346.343287795872	12.923405952034
5	87699	29350.951722186265	13.50076680625
5	87707	29351.959838159913	13.636495396206
5	87715	29358.560212633916	20.092702012688
5	87723	29361.387598804915	16.939746464022
5	87728	29361.990314994029	17.207693574954
5	87737	29364.175661516621	18.65521046996
5	87745	29365.110046315666	18.882792895503
5	87750	29367.815352853143	20.026638779179
5	87759	29370.39306088316	20.762961031328
5	87767	29373.680797772398	22.35095868839
5	87772	29374.678668469446	13.464011057688
5	87779	29381.258277842891	18.294038224208
5	87796	29394.229190023828	31.174598781817
5	87803	29398.418087445582	34.132513309511
5	87814	29401.294884142676	32.186617395249
5	87821	29403.83315368665	27.478219644537
5	87831	29408.458814454174	27.082698161141
5	87836	29410.040030617335	22.299275481931
5	87845	29413.549653152441	20.621715188298
5	87850	29413.906326208241	20.538502536966
5	87857	29420.536039311325	24.303579756461
5	87862	29421.513113162275	22.654465095939
5	87869	29424.850663524777	25.295448446116
5	87875	29427.912914682353	12.17195565811
5	87912	29437.605687296496	7.284182768759
5	87917	29437.674963363456	2.604867463777
5	87941	29447.649611475135	9.226784598629
5	87946	29448.491842277195	0.864081234667
5	87971	29459.772285587472	2.573437703621
5	87976	29460.639736373707	2.569012965893
5	87995	29470.966784525446	6.427724044785
5	88003	29473.564703505953	7.691834379205
5	88008	29473.810019386294	6.553306617678
5	88018	29476.717835344641	4.845235535893
5	88026	29477.878859351586	3.821627477727
5	88031	29478.275622083431	0.528101403374
5	88052	29488.148776011921	8.77462416129
5	88060	29489.50608633563	2.897846549138
5	88075	29495.48634793451	5.803300779806
5	88098	29502.431167546407	6.41800470698
5	88116	29509.674928100332	10.814250761623
5	88127	29512.19171011556	12.13151429302
5	88134	29514.636903567777	12.262322217157
5	88142	29516.545133193163	12.642529020885
5	88148	29517.636779568919	13.547015104725
5	88155	29520.955159913229	10.063605063799
5	88169	29527.641802153855	14.440904135029
5	88174	29528.392810984184	11.869899157736
5	88181	29528.837003401179	1.523994329958
5	88189	29531.9490704859	3.292610197811
5	88212	29541.975139662309	5.361998189301
5	88217	29542.165772572346	0.472341196845
5	88244	29548.522287707134	4.743412684998
5	88252	29550.385310065967	3.148101985611
5	88263	29552.357603854404	2.050303528736
5	88269	29554.787514244761	3.716264697839
5	88297	29566.21585790419	6.805600543359
5	88305	29569.057876519377	3.791276532888
5	88315	29571.873998353667	4.29485917747
5	88326	29576.670581685691	7.399970569924
5	88331	29577.678093044589	1.585557793327
5	88349	29587.714094016277	8.271659319665
5	88354	29588.488918416488	8.846576161636
5	88402	29601.573951026477	6.133439615062
5	88407	29601.952508705596	5.926162858853
5	88425	29605.089476159723	2.309303483974
5	88437	29609.464721236281	6.12650624898
5	88443	29609.741883638733	4.398988776771
5	88452	29612.659735998743	7.023399035014
5	88491	29628.359871054278	10.310873437128
5	88496	29629.290347730758	7.742798853387
5	88501	29630.187536351666	8.036254551794
5	88506	29630.482473995757	8.294931695679
5	88529	29639.699288378268	17.46288186048
5	88534	29640.602190612087	18.31784690465
5	88540	29642.01263742427	18.720466897725
5	88551	29650.388269458115	26.618878007551
5	88558	29652.362392978272	17.738898382303
5	88563	29652.385494172477	17.469861417415
5	88568	29652.688176957578	17.609855054793
5	88576	29653.939019824663	15.811748324469
5	88581	29654.842258976887	3.835705814114
5	88603	29661.868273279238	5.736489086252
5	88615	29664.818344416674	7.819161056835
5	88629	29668.750784951576	2.325481874198
5	88640	29673.720754842786	5.044266165631
5	88664	29688.557866100278	14.501654728155
5	88669	29689.010084693496	14.066644758124
5	88675	29689.541599289817	14.416074353232
5	88682	29692.60193055184	13.376130917884
5	88692	29695.265452041293	15.570985438249
5	88704	29697.831660218729	0.659690855109
5	88721	29706.454174011392	4.023855063093
5	88738	29713.458424732453	10.803110960726
5	88743	29713.538440019308	4.106476755717
5	88758	29715.979465626378	1.861239308544
5	88787	29725.957069297452	5.422097617628
5	88797	29728.55520048029	5.42199818567
5	88806	29729.954231322479	3.675745341907
5	88819	29732.108267999253	1.689263742717
5	88840	29738.662631810099	5.140243165629
5	88857	29744.218076539304	4.184403742458
5	88862	29744.433661308188	4.256353223755
5	88893	29767.579264468352	12.09080554295
5	88938	29785.257668629366	5.665456182934
5	88945	29785.985130860118	2.249774558113
5	88954	29786.976971362595	1.912907460778
5	88973	29796.366542358575	10.214415980077
5	88978	29797.301495104212	11.12882763938
5	88986	29800.463167724767	11.645095655156
5	88993	29801.021299189062	10.845729805816
5	88998	29801.509241434997	8.100910328861
5	89004	29807.194445767918	13.699680291299
5	89012	29811.706189479829	16.265992834305
5	89021	29814.134345914567	13.151951847979
5	89030	29816.006403731954	2.2645747002
5	89039	29817.814541953449	3.221229523371
5	89044	29818.539288237681	0.898191657494
5	89071	29827.166615995673	5.912860915511
5	89079	29828.582810358129	5.362354986473
5	89084	29828.711626626575	3.50569843653
5	89095	29831.240690696319	2.697324929998
5	89128	29841.286799019858	2.139300368906
5	89138	29847.483406136218	6.290291685095
5	89143	29847.541696329724	5.202337475334
5	89156	29853.461082868437	6.697700377843
5	89185	29866.587864280814	5.723813833472
5	89190	29867.068319619552	1.977713252873
5	89207	29877.817209801567	6.323873746244
5	89232	29886.80743627513	6.023873610398
5	89239	29889.122743970065	7.916923681722
5	89254	29894.05234445002	4.35926606503
5	89261	29895.035825521082	5.293954973601
5	89284	29904.568584364425	4.667681650518
5	89293	29905.76802464532	5.522271063786
5	89298	29907.066313328083	1.948850458252
5	89331	29915.135055525695	5.198639305013
5	89339	29916.021036489079	1.755470637566
5	89347	29920.23960454347	5.925684453604
5	89360	29923.0024791021	0.689421984692
5	89380	29943.091397912865	9.644092392254
5	89387	29943.460807523419	6.934455532488
5	89392	29944.28000588905	0.904675967927
5	89404	29945.737913255348	1.324895375821
5	89425	29954.161823224524	7.398278373139
5	89441	29961.145692081919	7.48184221746
5	89446	29961.336180289219	7.296433386572
5	89456	29964.157442516496	8.258444096041
5	89463	29965.745282958834	2.896864455899
5	89497	29978.046530506708	1.931360230282
5	89512	29984.576527841169	5.862103568634
5	89525	29988.546016991664	2.648962366454
5	89539	29998.247482287385	6.742877265785

