version 2
run Third-n5-8-20191016-17:04:56-7672
attr configname Third-n5
attr datetime 20191016-17:04:56
attr experiment Third-n5
attr inifile omnetpp.ini
attr iterationvars ""
attr iterationvarsf ""
attr measurement ""
attr network org.omnetpp.queueing.Pizza
attr processid 7672
attr repetition 8
attr replication ""
attr resultdir results
attr runnumber 8
attr seedset 8
param **.PS.maxInventoriedPS 5
param **.U1.interArrivalTime exponential(4s)
param **.U2.interArrivalTime exponential(6s)
param **.PS.serviceTimeForInventoryU1 exponential(1.4s)
param **.PS.serviceTimeForInventoryU2 exponential(1.4s)
param **.PS.serviceTimeDirectU1 exponential(1.8s)
param **.PS.serviceTimeDirectU2 exponential(1.8s)
param **.PS.probabilityProducing 0.8
param **.CS.serviceTimeU1 exponential(2.3s)
param **.CS.serviceTimeU2 exponential(2.3s)

vector 0 Pizza.EntryQueueU1 queueLength:vector ETV
attr interpolationmode sample-hold
attr title "queue length, vector"
vector 1 Pizza.CS queueLength:vector ETV
attr interpolationmode sample-hold
attr title "queue length, vector"
vector 2 Pizza.EntryQueueU2 queueLength:vector ETV
attr interpolationmode sample-hold
attr title "queue length, vector"
vector 3 Pizza.sink lifeTime:vector ETV
attr interpolationmode none
attr title "lifetime of arrived jobs, vector"
attr unit s
vector 4 Pizza.sink lifeTimeU2:vector ETV
attr interpolationmode none
attr title "lifetime of arrived jobs, vector"
attr unit s
vector 5 Pizza.sink lifeTimeU1:vector ETV
attr interpolationmode none
attr title "lifetime of arrived jobs, vector"
attr unit s
0	0	0	0
0	31	14.077283905029	1
0	33	14.775973036721	0
0	47	16.981657138982	1
0	49	17.528858741778	2
0	51	18.959091631617	3
0	52	19.305184454153	2
0	60	20.514295322747	3
0	61	20.639705281108	2
0	68	21.614502878604	1
0	73	21.681554546823	0
0	102	32.130841439896	1
0	104	32.415494324676	2
0	105	33.276084903708	1
0	112	36.600757785114	2
0	114	36.73088427647	3
0	116	36.864859322156	4
0	117	36.927454367249	3
0	124	37.517897181147	2
0	129	38.214348878739	1
0	137	39.296025373181	2
0	138	39.574463661722	1
0	143	39.95088368888	0
0	149	40.449324078455	1
0	151	40.872485607279	2
0	154	42.900723229166	1
0	160	43.206232490068	2
0	162	43.980769475633	1
0	168	45.624200400862	0
0	207	57.223315910263	1
0	208	57.397831122159	0
0	217	62.324876303637	1
0	218	63.508589881793	0
0	264	77.237374689879	1
0	265	78.962171060733	0
0	272	79.395825970304	1
0	274	82.536196370613	0
0	296	91.129868765742	1
0	298	93.212843839187	0
0	326	106.248763757282	1
0	328	109.460745088739	2
0	330	110.44031424202	3
0	331	110.706806999439	2
0	336	112.175518472694	1
0	342	112.764411628656	2
0	345	114.577655205018	1
0	350	114.726862618996	0
0	356	115.778484837671	1
0	359	116.299223600474	0
0	366	118.580080447367	1
0	367	118.635268164029	0
0	381	127.805938821858	1
0	382	128.647831438795	0
0	397	132.088717313573	1
0	401	133.306533750955	0
0	414	135.109535228636	1
0	415	135.114553428405	0
0	457	152.189300285822	1
0	461	157.578785148755	2
0	464	159.398175025296	1
0	470	160.502846520819	0
0	488	168.28588889314	1
0	490	169.74593425704	2
0	493	170.381596135855	1
0	499	171.206630852299	0
0	508	172.039083463915	1
0	511	173.697915543366	0
0	523	184.079132253369	1
0	524	185.461182160722	0
0	544	188.770360351589	1
0	547	193.772185417401	0
0	553	194.071723861284	1
0	555	194.24157067083	2
0	556	194.849695795672	1
0	561	195.427380728671	0
0	570	197.04605442201	1
0	573	200.281973384712	0
0	594	209.193445758013	1
0	600	209.489081362131	2
0	601	209.528010781447	1
0	606	209.537610738146	0
0	618	211.758630312969	1
0	625	214.697896699766	2
0	631	220.018147467342	3
0	632	220.733717993534	2
0	641	223.580891681399	3
0	643	225.979291471897	4
0	644	226.40268891708	3
0	650	228.686691699933	2
0	656	231.435784077355	1
0	663	233.892641667478	2
0	664	233.935844365491	1
0	669	234.670339243273	0
0	691	238.839187979565	1
0	693	239.388011886152	2
0	694	242.551918591144	1
0	701	245.02328176314	2
0	705	247.116585273896	3
0	706	248.436754412685	2
0	711	248.916569195835	1
0	717	250.702349691071	0
0	736	253.939039065862	1
0	740	255.855846566219	0
0	750	257.083809452631	1
0	753	259.807899237636	0
0	759	260.098567643943	1
0	765	265.948367106875	0
0	791	271.376976457346	1
0	793	273.013102952885	2
0	798	277.054389291705	3
0	800	277.674028577036	4
0	804	279.025330016372	5
0	806	279.755413510534	6
0	810	282.519268127806	7
0	812	283.543055880666	8
0	813	285.476193859407	7
0	819	287.928358496941	6
0	830	290.536272910685	5
0	836	291.298664997531	6
0	837	292.021506276362	5
0	843	292.165866942632	6
0	845	293.145852016198	5
0	851	293.173445841178	6
0	855	297.078790231459	5
0	861	297.163657014978	6
0	864	299.876880650675	5
0	870	300.973069431544	4
0	875	301.954935298348	3
0	881	302.323507190651	2
0	886	302.438050182669	1
0	891	305.702117671285	0
0	895	305.871563935704	1
0	897	305.989884050991	2
0	901	310.237645887347	1
0	905	311.997144054915	2
0	908	312.806169864538	1
0	912	313.309579327321	2
0	914	313.793640049155	3
0	917	316.234247590048	2
0	925	320.102825412299	3
0	927	321.649443512654	2
0	933	322.033155077726	3
0	935	323.962324971299	2
0	940	324.868777149189	1
0	945	326.544334613725	0
0	949	326.623202009466	1
0	956	329.383843905123	0
0	970	331.480316988582	1
0	974	332.317770772095	2
0	978	335.619098774802	3
0	981	338.233582143501	2
0	989	339.577579386495	1
0	994	341.030531475909	0
0	1011	343.308496556275	1
0	1014	348.393625373425	0
0	1021	350.334476373402	1
0	1023	351.633581348994	2
0	1026	352.600223469041	1
0	1032	353.525130098415	2
0	1037	357.366796675226	1
0	1042	358.767969468836	0
0	1048	358.884571719272	1
0	1049	359.204616291152	0
0	1095	376.998184631101	1
0	1096	377.046530249198	0
0	1126	392.978902704563	1
0	1128	395.162609828099	2
0	1131	396.201537981452	1
0	1137	397.913453505511	0
0	1146	399.547146108982	1
0	1147	399.644647441203	0
0	1164	403.778292533153	1
0	1165	404.950514215348	0
0	1172	406.372364370946	1
0	1173	409.285903827423	0
0	1199	422.555357467083	1
0	1202	424.569454116598	0
0	1218	430.262109842654	1
0	1226	434.653434272095	2
0	1232	435.290950371818	3
0	1234	437.1350029737	4
0	1236	437.514665491138	5
0	1238	438.574838503753	6
0	1241	440.967002564296	5
0	1249	441.928322448601	6
0	1250	443.12597947298	5
0	1258	445.539094174629	4
0	1264	448.1252910816	3
0	1272	450.353114061039	4
0	1276	451.261879693801	5
0	1278	451.565587556435	6
0	1280	453.511850472924	7
0	1282	453.87187509329	8
0	1283	456.801324472232	7
0	1295	462.199139223097	6
0	1303	462.924671739714	7
0	1304	463.182397961979	6
0	1310	463.819583826055	7
0	1311	463.895744834432	6
0	1318	464.245996099794	7
0	1319	465.760559931783	6
0	1329	467.040175648619	5
0	1336	467.971223216523	6
0	1340	471.419839201874	5
0	1346	471.729781890598	6
0	1349	472.501805007702	7
0	1351	473.279358601128	8
0	1352	473.332627274337	7
0	1358	473.676848970749	6
0	1364	474.767595983309	5
0	1371	477.097754852352	6
0	1372	477.170369535636	5
0	1383	479.186019072928	4
0	1390	479.38603481943	5
0	1393	480.949323534382	6
0	1395	481.078724147438	7
0	1397	481.878367009369	6
0	1404	483.940706326301	5
0	1409	483.993698145658	4
0	1418	488.045565725957	5
0	1419	488.628356543749	4
0	1425	488.719833220106	5
0	1430	491.719402134558	6
0	1434	492.389241139383	7
0	1435	492.595470566745	6
0	1441	496.907384620462	5
0	1447	496.985718956334	6
0	1448	497.18990676453	5
0	1456	497.890022752961	6
0	1458	499.598426130772	5
0	1464	501.429300824617	4
0	1470	502.449189045526	3
0	1478	504.688139966694	2
0	1483	505.145659128192	1
0	1490	506.420384947019	0
0	1501	518.854144068479	1
0	1502	519.527860830963	0
0	1521	525.110518372783	1
0	1522	525.706077543014	0
0	1554	535.102424402123	1
0	1558	540.094949627631	0
0	1578	543.842700324603	1
0	1580	545.49602913254	2
0	1585	547.856084658452	1
0	1591	548.132095867697	2
0	1594	548.710100812343	3
0	1595	552.86061319861	2
0	1601	553.493455825376	1
0	1607	554.260185629184	2
0	1611	556.013351351721	1
0	1617	558.559491657717	2
0	1618	559.73246656373	1
0	1626	563.055519823728	0
0	1633	564.946804736925	1
0	1637	565.510649950452	2
0	1638	565.880589267905	1
0	1647	566.668453494327	2
0	1648	569.380925742226	1
0	1653	570.931631374812	0
0	1668	574.517195972415	1
0	1672	578.272694909743	0
0	1685	581.415765534841	1
0	1688	581.739868651243	2
0	1689	582.705984494605	1
0	1694	583.587872147459	0
0	1704	585.175587893324	1
0	1705	585.594348743011	0
0	1714	586.519969511345	1
0	1716	586.544457517447	2
0	1718	586.760102608107	3
0	1720	586.857158851102	4
0	1725	588.382312566184	3
0	1735	590.145023546497	4
0	1738	592.069458949892	5
0	1740	592.285268295952	6
0	1741	598.83230309434	5
0	1748	601.213363419582	6
0	1751	602.969122435975	5
0	1756	603.115791186687	4
0	1762	604.002560844884	3
0	1767	604.261872164676	2
0	1774	605.097767132454	3
0	1775	606.618047434064	2
0	1780	607.905072470633	1
0	1785	608.206994329148	0
0	1804	611.79239270424	1
0	1806	612.498460664022	0
0	1815	613.314297811903	1
0	1819	614.382700088805	2
0	1820	615.354112449003	1
0	1827	616.351457950341	0
0	1837	619.770509164971	1
0	1839	619.963091975438	2
0	1842	620.863267312371	1
0	1847	621.99915687931	0
0	1886	632.296420293373	1
0	1889	633.42788554646	0
0	1895	633.506290057076	1
0	1902	642.152990602249	0
0	1921	644.398651500539	1
0	1923	645.81866924527	0
0	1929	646.177386779013	1
0	1932	647.121398100163	2
0	1933	649.805720402099	1
0	1939	650.462014286954	2
0	1941	650.906240819605	3
0	1945	652.381967735871	2
0	1950	653.057352502203	1
0	1956	654.780748391098	0
0	1962	655.724038746539	1
0	1963	655.726987543347	0
0	1981	659.540547717562	1
0	1982	661.361544846058	0
0	1990	664.149876093239	1
0	1992	664.178353662458	0
0	2000	665.36848358587	1
0	2001	667.315739292875	0
0	2008	668.289297643913	1
0	2010	668.818374809984	2
0	2011	668.996783702965	1
0	2020	670.131473522684	2
0	2023	672.497909685809	3
0	2027	675.971700871914	2
0	2032	677.203185345617	1
0	2038	678.737296403763	0
0	2066	687.752591576054	1
0	2068	688.637302065973	2
0	2069	688.664763350213	1
0	2075	689.563140459613	0
0	2081	690.014113707393	1
0	2084	692.321220816248	2
0	2089	694.498424941125	1
0	2095	696.364953919083	0
0	2101	697.395982000829	1
0	2103	698.455976592982	0
0	2109	698.579655108581	1
0	2110	699.027086701789	0
0	2125	706.568121343747	1
0	2128	711.409400545328	0
0	2170	726.593469724835	1
0	2173	727.886879549605	0
0	2197	737.694440671399	1
0	2198	739.833885715722	0
0	2208	740.780943276372	1
0	2211	742.281493224675	0
0	2218	742.834499025284	1
0	2221	743.619359345098	0
0	2228	744.475511475076	1
0	2230	748.762315344034	2
0	2232	749.225769896493	3
0	2233	750.520026222269	2
0	2239	753.817087384596	1
0	2245	753.836064543401	2
0	2247	754.06238844718	3
0	2249	754.743853235709	4
0	2250	755.581312002289	3
0	2256	757.22502459971	4
0	2258	757.472398655384	5
0	2259	758.454426557035	4
0	2264	758.507298703022	3
0	2270	758.896079562962	2
0	2276	760.35094669005	1
0	2282	762.352836488346	0
0	2297	764.977526261039	1
0	2300	766.036839995299	0
0	2309	767.500413083751	1
0	2314	771.819594720867	0
0	2326	773.389886374072	1
0	2329	773.9161153314	0
0	2335	775.280679392401	1
0	2336	775.675417655366	0
0	2342	775.780971631937	1
0	2348	778.703045007714	0
0	2357	779.910545372107	1
0	2362	782.259087395862	2
0	2364	783.991415941953	1
0	2369	784.189792171872	0
0	2377	787.096294621142	1
0	2380	790.396259723075	2
0	2381	790.524428909158	1
0	2386	791.253150681229	0
0	2401	793.922266496632	1
0	2402	794.688452548936	0
0	2408	795.156952754107	1
0	2409	795.263238877049	0
0	2421	796.878833241024	1
0	2424	800.733246426718	0
0	2451	806.171805887226	1
0	2456	808.089431537505	0
0	2477	812.449505971014	1
0	2478	813.082387405805	0
0	2492	816.246319165387	1
0	2494	816.821621894485	2
0	2495	817.190789830077	1
0	2501	817.354044924792	2
0	2503	818.150899500306	3
0	2505	818.882948502081	4
0	2509	819.950035432132	5
0	2511	820.286237319753	6
0	2512	820.579668822424	5
0	2520	823.668117016723	4
0	2527	825.853813851438	3
0	2534	826.595552155124	2
0	2539	826.961783977253	1
0	2545	827.937164977961	2
0	2546	828.635418611428	1
0	2554	830.792589252508	2
0	2556	831.390455500711	3
0	2562	833.722539076357	4
0	2564	833.927251952349	5
0	2565	834.233022392242	4
0	2570	834.387855715109	3
0	2575	834.727699801477	2
0	2585	837.741233778086	1
0	2590	839.85229322783	0
0	2611	844.616305544859	1
0	2613	845.253753021998	2
0	2614	847.298432575735	1
0	2619	847.971508263071	0
0	2680	868.859207067728	1
0	2682	868.927472378253	2
0	2683	869.553174236877	1
0	2691	870.487165899877	2
0	2697	879.263140558998	1
0	2703	882.553985829281	0
0	2716	887.33860967869	1
0	2718	887.379063279285	2
0	2719	888.657716699887	1
0	2728	891.039408454189	2
0	2730	891.781132303272	3
0	2731	892.377271127951	2
0	2736	892.55414232766	1
0	2742	893.555369707711	0
0	2755	899.129662583028	1
0	2758	899.388281914914	0
0	2764	899.723536853161	1
0	2767	900.194698767952	2
0	2768	900.91983921931	1
0	2777	904.14040144705	2
0	2780	905.045300841869	1
0	2787	910.483554525661	0
0	2796	913.334731885117	1
0	2797	914.498204045582	0
0	2803	914.926727690358	1
0	2804	915.645564679537	0
0	2823	918.843048616985	1
0	2825	919.010110840945	2
0	2826	921.147162884039	1
0	2832	922.076360386967	2
0	2836	924.534822608394	1
0	2841	925.459694321298	0
0	2853	929.179059213763	1
0	2856	929.834667006949	2
0	2857	930.251992628453	1
0	2863	931.310704962348	0
0	2899	941.627583169188	1
0	2903	945.260680422187	2
0	2904	947.468344486434	1
0	2912	949.817832630275	2
0	2918	953.771253413351	1
0	2924	954.49530662006	0
0	2934	956.374408323808	1
0	2939	957.32380490592	0
0	2945	957.663702056721	1
0	2948	958.920391659443	2
0	2949	960.325534421455	1
0	2954	962.072829793558	0
0	2962	963.984615969933	1
0	2963	964.081441732291	0
0	2970	965.319729732621	1
0	2971	965.495284791025	0
0	2987	967.670495309088	1
0	2988	967.707717381142	0
0	2994	972.309667127773	1
0	2995	972.690172392217	0
0	2999	972.907718537955	1
0	3007	976.493065922862	0
0	3016	977.945451353485	1
0	3020	979.401157727016	0
0	3031	981.365722318029	1
0	3038	984.437891169231	0
0	3045	985.542735305502	1
0	3047	987.031302967033	0
0	3086	997.036870587855	1
0	3091	1001.500365799363	0
0	3110	1008.714313820917	1
0	3112	1010.047619914477	2
0	3113	1011.097624149885	1
0	3119	1011.523189167994	0
0	3131	1012.513761732541	1
0	3134	1015.201764025706	0
0	3144	1017.547775116898	1
0	3147	1019.189790981035	0
0	3167	1025.050664291729	1
0	3169	1025.122099287308	2
0	3178	1030.504790075372	1
0	3183	1031.17237853702	0
0	3207	1036.376516045887	1
0	3209	1037.908328337875	2
0	3211	1038.732818222765	3
0	3212	1039.266492082604	2
0	3218	1042.485598193468	1
0	3224	1043.0755454533	0
0	3244	1045.669691462664	1
0	3246	1046.194375511784	2
0	3249	1049.267427058819	1
0	3255	1050.168603597127	2
0	3256	1051.676560635125	1
0	3262	1052.018766451025	2
0	3263	1052.715185835842	1
0	3269	1052.883185614257	2
0	3271	1054.080796194225	1
0	3278	1055.259003706862	0
0	3294	1058.558046232513	1
0	3295	1058.775656108942	0
0	3301	1059.018685920784	1
0	3304	1062.671722430628	0
0	3321	1065.189176079253	1
0	3322	1065.574220668713	0
0	3328	1065.936010728559	1
0	3334	1070.096621328144	0
0	3349	1073.090044466274	1
0	3351	1074.595841793143	0
0	3359	1076.041081480725	1
0	3360	1076.608124882551	0
0	3377	1077.947774534427	1
0	3379	1078.35101950163	2
0	3387	1083.665025092047	1
0	3395	1085.480345024954	2
0	3396	1086.052577663392	1
0	3402	1087.194455501428	2
0	3404	1087.278492429886	3
0	3411	1094.734378869477	4
0	3413	1095.647037960405	5
0	3415	1095.737441600717	6
0	3416	1098.41561087576	5
0	3421	1099.278821535037	4
0	3427	1099.343566082981	5
0	3432	1104.570821124039	6
0	3433	1104.585321785201	5
0	3440	1106.254471774212	4
0	3445	1106.9698585801	3
0	3450	1107.002980638237	2
0	3455	1107.590835114978	1
0	3460	1108.354235143698	0
0	3468	1109.130736313055	1
0	3470	1111.059414190307	0
0	3476	1111.490094291386	1
0	3481	1113.179388784628	2
0	3490	1117.836390826305	1
0	3499	1120.374707183452	2
0	3502	1122.009216011067	1
0	3512	1124.430630185384	0
0	3524	1127.242743472135	1
0	3525	1127.792492061939	0
0	3532	1127.834611092558	1
0	3533	1130.02164491215	0
0	3539	1130.136444036916	1
0	3545	1132.447310036051	2
0	3548	1133.268649509316	1
0	3554	1134.453851682332	0
0	3560	1134.652245224555	1
0	3563	1136.785573665289	2
0	3565	1138.074313782922	3
0	3566	1140.342101430955	2
0	3572	1145.766928479714	3
0	3574	1146.563315532658	4
0	3578	1149.234192390698	5
0	3579	1151.929583577191	4
0	3586	1153.924007412215	3
0	3591	1154.536498085833	2
0	3598	1155.156714147686	3
0	3599	1155.393934008144	2
0	3605	1158.767620472847	1
0	3610	1158.99397935875	0
0	3616	1159.535693738923	1
0	3620	1160.175765334808	0
0	3641	1171.692550840103	1
0	3642	1174.113168692705	0
0	3672	1178.688737511388	1
0	3673	1179.412143134863	0
0	3683	1180.863762769944	1
0	3684	1181.026169181176	0
0	3690	1181.080566566056	1
0	3695	1186.418200456896	0
0	3701	1186.513418802028	1
0	3702	1187.319010208926	0
0	3712	1190.382956562632	1
0	3716	1192.846264816577	0
0	3725	1194.536818528239	1
0	3730	1194.977352620069	2
0	3733	1197.337503240435	3
0	3734	1199.930320741772	2
0	3740	1200.172225140243	1
0	3746	1200.412290135011	0
0	3762	1205.274123929165	1
0	3764	1205.758267734213	2
0	3767	1205.843095444522	1
0	3772	1205.843345974788	0
0	3794	1208.920432573827	1
0	3798	1210.186008408262	2
0	3805	1212.043386975491	3
0	3811	1214.963579972492	4
0	3814	1216.788348522677	3
0	3819	1219.987595120077	2
0	3824	1220.478777561606	1
0	3838	1225.606753446294	0
0	3868	1234.92322041715	1
0	3870	1235.201721232365	2
0	3874	1239.409596932016	3
0	3875	1239.789680096094	2
0	3882	1240.658526305812	3
0	3884	1242.734883792363	4
0	3886	1244.625200629237	5
0	3887	1246.157023012051	4
0	3894	1247.983225669509	3
0	3901	1250.640025972412	4
0	3904	1253.187771325168	3
0	3910	1253.840637533089	4
0	3911	1257.407013135272	3
0	3917	1257.668226485451	2
0	3922	1257.972830762164	1
0	3927	1258.309158997439	0
0	3933	1258.692978322545	1
0	3935	1260.124391793443	0
0	4006	1277.386069373236	1
0	4012	1278.549777843442	2
0	4013	1283.08636510208	1
0	4019	1283.662018614265	0
0	4039	1287.672284571401	1
0	4041	1288.581156062399	2
0	4043	1289.844848445155	3
0	4046	1292.23911258657	2
0	4052	1292.824560379506	3
0	4054	1294.02141778723	2
0	4060	1294.29384135956	3
0	4062	1294.897216954941	2
0	4068	1294.934172755717	3
0	4069	1296.096893731347	2
0	4077	1296.182016403346	3
0	4078	1296.282602035493	2
0	4084	1296.294770131955	3
0	4087	1296.762177043835	2
0	4092	1297.011138050378	1
0	4097	1297.448421907923	0
0	4125	1302.29428080817	1
0	4129	1304.495594433692	2
0	4133	1307.376302370032	1
0	4140	1309.217866820918	2
0	4142	1309.445124208114	3
0	4148	1313.037474879515	4
0	4149	1313.477652194036	3
0	4157	1314.812696144699	4
0	4159	1315.481903590497	5
0	4161	1318.317427741926	4
0	4166	1319.191050490797	3
0	4173	1319.854537509232	2
0	4181	1321.393536253019	1
0	4189	1322.167136067089	2
0	4190	1323.395632264116	1
0	4196	1323.462584568978	2
0	4198	1324.188748623174	3
0	4199	1324.261703794828	2
0	4206	1324.931751448169	3
0	4211	1325.735876310253	4
0	4212	1326.282889938453	3
0	4218	1327.178162979261	4
0	4220	1327.276511851307	5
0	4226	1329.152138864721	4
0	4232	1329.185641112902	5
0	4237	1329.86683469099	6
0	4238	1331.878927398486	5
0	4243	1332.155564629224	4
0	4248	1333.175087478285	3
0	4254	1333.218700520863	4
0	4256	1334.267772937069	5
0	4259	1336.060814723917	6
0	4268	1337.222302185219	7
0	4270	1337.491361252296	8
0	4271	1337.619753454746	7
0	4276	1338.977782429016	6
0	4281	1339.694267441351	5
0	4286	1339.767698957768	4
0	4294	1342.571052278274	3
0	4300	1343.38357761572	4
0	4302	1344.642775788238	3
0	4308	1346.149755847744	4
0	4316	1349.941158629778	3
0	4324	1351.152264645948	2
0	4332	1352.914889761528	3
0	4333	1354.896952278737	2
0	4339	1357.442808768061	1
0	4347	1359.725940505942	0
0	4370	1363.071826049075	1
0	4372	1363.830456874743	2
0	4375	1366.799040062534	1
0	4380	1366.889970055423	0
0	4395	1371.097369321536	1
0	4396	1371.666371747999	0
0	4405	1377.47570507095	1
0	4408	1378.647676255205	0
0	4415	1378.961085492296	1
0	4416	1380.461038232358	0
0	4430	1382.768379828021	1
0	4432	1382.803291832259	2
0	4433	1382.975537114815	1
0	4439	1383.863317992744	2
0	4440	1384.248029674311	1
0	4445	1384.485094455288	0
0	4451	1386.362695696585	1
0	4456	1389.701717842691	2
0	4457	1391.032053533306	1
0	4462	1391.984957271804	0
0	4470	1392.903390282206	1
0	4475	1395.200150606269	0
0	4503	1399.997505962406	1
0	4505	1400.57408804273	2
0	4506	1401.591328550068	1
0	4515	1403.185703912244	2
0	4516	1403.921080912735	1
0	4525	1405.681513045825	2
0	4528	1407.549114564871	1
0	4534	1408.087644423525	0
0	4551	1410.653700905295	1
0	4558	1413.684602344883	0
0	4564	1414.043472111083	1
0	4567	1414.427370114537	2
0	4568	1415.170639237227	1
0	4577	1419.464146353159	0
0	4589	1431.888323195599	1
0	4590	1431.944061365389	0
0	4597	1432.226153583599	1
0	4600	1432.835311924935	0
0	4623	1437.182059140091	1
0	4631	1442.177037822763	0
0	4646	1447.395435583137	1
0	4647	1456.099529630727	0
0	4663	1459.55488803994	1
0	4666	1461.548844144102	0
0	4675	1463.485360053511	1
0	4677	1463.780971703695	2
0	4683	1468.060234100186	1
0	4688	1470.20407296871	0
0	4705	1475.159369722976	1
0	4707	1476.021735829762	2
0	4710	1477.827835233454	1
0	4717	1479.081690852238	0
0	4729	1481.187013455511	1
0	4730	1482.338647104603	0
0	4746	1485.95705189104	1
0	4752	1487.216790193675	2
0	4754	1489.264436726033	3
0	4755	1489.988868962587	2
0	4763	1491.683259721443	1
0	4768	1491.697703270228	0
0	4792	1501.200724913692	1
0	4794	1501.304814314056	2
0	4795	1501.374359216664	1
0	4800	1501.579387297291	0
0	4809	1501.81020358494	1
0	4813	1503.495469887533	0
0	4823	1505.796616631945	1
0	4825	1505.874169520537	2
0	4826	1505.908408662089	1
0	4834	1508.806533497579	0
0	4840	1509.705239931513	1
0	4842	1509.818122761897	0
0	4849	1510.71439724374	1
0	4850	1511.9057993502	0
0	4859	1513.522692713081	1
0	4865	1519.662996188904	0
0	4889	1529.076785981127	1
0	4892	1533.24406475754	0
0	4902	1534.064512765849	1
0	4905	1535.116710041847	0
0	4916	1537.57014672533	1
0	4918	1537.737227507916	2
0	4919	1538.137068505308	1
0	4924	1538.215949099248	0
0	4954	1557.91572262934	1
0	4956	1558.664288907995	0
0	4968	1560.125192191106	1
0	4969	1565.843076444021	0
0	4983	1568.347994426487	1
0	4987	1569.521533846933	0
0	4994	1570.574264052843	1
0	4998	1572.973718195912	0
0	5004	1572.980799695028	1
0	5007	1574.082434804533	2
0	5009	1577.904706931303	3
0	5010	1578.808486938205	2
0	5015	1580.454173367137	1
0	5026	1585.420749726478	0
0	5051	1589.810444440924	1
0	5053	1589.888772257961	2
0	5054	1592.921351073663	1
0	5059	1593.28582586583	0
0	5068	1594.595925394212	1
0	5071	1595.134361375946	2
0	5073	1596.386515972368	3
0	5074	1597.198555793266	2
0	5080	1598.444911118194	1
0	5085	1599.31795855542	0
0	5101	1603.310433654998	1
0	5104	1607.623458057477	0
0	5115	1610.998189632275	1
0	5116	1611.977044727113	0
0	5123	1613.860859931927	1
0	5124	1616.497965488438	0
0	5156	1626.765877331465	1
0	5160	1627.444866658883	2
0	5162	1627.651101462696	3
0	5163	1629.563141204586	2
0	5169	1635.796933835069	1
0	5177	1636.430397702881	2
0	5178	1637.562408135523	1
0	5185	1640.536208856263	0
0	5236	1661.860655902847	1
0	5241	1664.220856535121	2
0	5245	1667.950029957333	3
0	5246	1669.44542172515	2
0	5252	1671.733619078994	3
0	5258	1672.750250167498	4
0	5261	1674.637686446907	3
0	5270	1676.528219285931	2
0	5276	1677.569126849658	1
0	5281	1677.673550372675	0
0	5316	1690.604127072648	1
0	5322	1691.332185267434	0
0	5334	1697.235115815124	1
0	5335	1697.919539422581	0
0	5365	1701.80234830854	1
0	5369	1703.055608705689	2
0	5374	1705.055936465885	3
0	5378	1707.44018261093	2
0	5387	1715.862602705062	3
0	5390	1718.832409484808	2
0	5395	1721.409795130559	1
0	5404	1723.431225543153	2
0	5406	1724.169757747864	3
0	5407	1724.341218644718	2
0	5416	1729.893759106617	1
0	5422	1734.108868985573	0
0	5446	1737.011822505177	1
0	5450	1737.78706658468	0
0	5457	1737.967570521639	1
0	5459	1739.291339182629	2
0	5460	1739.562686349275	1
0	5467	1741.114716332882	2
0	5468	1741.243525744904	1
0	5474	1744.389984728833	0
0	5488	1749.536760297019	1
0	5491	1753.803779313318	0
0	5498	1754.753540452086	1
0	5499	1754.962326853424	0
0	5511	1757.822110356577	1
0	5513	1757.941296942756	2
0	5515	1757.982909293075	3
0	5516	1759.1662007808	2
0	5522	1759.765062635944	3
0	5523	1759.901362000343	2
0	5535	1764.353653354835	3
0	5537	1765.393856513099	4
0	5538	1765.811083350115	3
0	5544	1766.292626908802	4
0	5548	1767.992491424378	3
0	5557	1768.597615059193	4
0	5562	1772.829232245001	3
0	5568	1776.130218585739	2
0	5573	1776.629361368655	1
0	5582	1776.998451192365	0
0	5599	1779.03993905347	1
0	5600	1780.017804906359	0
0	5608	1780.836985712348	1
0	5610	1782.359806191034	0
0	5618	1786.503942334589	1
0	5620	1787.363486235086	2
0	5621	1789.76294025005	1
0	5627	1792.882938273486	2
0	5630	1793.390032270178	1
0	5635	1794.201343194445	0
0	5673	1799.878799567425	1
0	5674	1801.184844692174	0
0	5681	1801.632030939338	1
0	5683	1801.861160816974	0
0	5692	1804.540298280358	1
0	5697	1806.351806947472	0
0	5714	1808.090373603958	1
0	5719	1810.50112203328	0
0	5731	1811.583742943111	1
0	5733	1812.484360373293	0
0	5759	1818.031870722089	1
0	5764	1821.000932889365	0
0	5815	1839.539674247328	1
0	5819	1842.164369651899	0
0	5834	1845.484334832351	1
0	5839	1849.186682311794	0
0	5848	1849.518604484354	1
0	5853	1850.734415357337	2
0	5854	1851.323748530945	1
0	5860	1851.680319194132	2
0	5863	1853.326695712623	3
0	5864	1855.92393588473	2
0	5869	1856.760810738531	1
0	5874	1857.2996950144	0
0	5894	1862.599537191375	1
0	5898	1865.830877703032	2
0	5899	1865.908245590307	1
0	5906	1869.288444824543	2
0	5907	1870.035750152291	1
0	5914	1871.73014756064	0
0	5923	1872.80241462846	1
0	5932	1883.478158336289	2
0	5936	1885.159032220863	3
0	5939	1885.99604056694	2
0	5945	1886.501078002936	1
0	5950	1886.917279843537	0
0	5997	1896.45461876623	1
0	6000	1897.096601403021	0
0	6007	1897.910789919771	1
0	6009	1899.180954128076	2
0	6011	1900.431089404201	3
0	6012	1901.193613530865	2
0	6017	1901.201077231121	1
0	6022	1901.256209034295	0
0	6031	1902.164116696675	1
0	6033	1903.159244477909	2
0	6043	1908.213846406423	3
0	6044	1908.35225003769	2
0	6053	1912.480666701613	1
0	6058	1912.696823990923	0
0	6064	1912.889520931002	1
0	6066	1913.192989448044	2
0	6068	1914.143832822402	1
0	6075	1916.131055026492	0
0	6081	1916.51561702329	1
0	6082	1916.855987882642	0
0	6099	1919.99141614224	1
0	6105	1921.556465430715	2
0	6107	1921.746573336101	3
0	6109	1921.849756212929	4
0	6113	1922.524593903034	5
0	6116	1925.229615622227	6
0	6118	1925.514480335505	7
0	6121	1930.299618001616	8
0	6124	1930.704864925311	7
0	6131	1931.507446055698	8
0	6133	1931.91562068837	9
0	6135	1932.589145770375	10
0	6139	1934.989458769939	9
0	6147	1936.671517020015	8
0	6152	1936.797945878639	7
0	6157	1937.119055043451	6
0	6162	1937.16939302167	5
0	6168	1938.775628187836	4
0	6176	1943.811058278497	5
0	6184	1946.088469134141	4
0	6190	1946.468904291507	3
0	6198	1946.794982750625	4
0	6200	1947.936161079912	5
0	6201	1950.541993280488	4
0	6206	1951.029274977399	3
0	6213	1952.504189207629	2
0	6218	1953.054481428776	1
0	6224	1953.251956550771	2
0	6227	1954.268649159175	3
0	6229	1955.129580513482	2
0	6235	1957.553956225539	1
0	6240	1957.579199536034	0
0	6246	1957.826057935042	1
0	6247	1957.92974148675	0
0	6265	1961.07794016975	1
0	6267	1961.307775640973	2
0	6270	1962.609189321836	1
0	6275	1962.772655999559	0
0	6286	1963.904312986772	1
0	6290	1965.571315163001	2
0	6292	1965.721465781257	3
0	6299	1967.304443782381	4
0	6301	1968.579154265782	3
0	6310	1970.224738514106	4
0	6311	1971.089465502344	3
0	6316	1971.952492111966	2
0	6326	1973.772804446716	1
0	6332	1974.614070462036	2
0	6339	1977.09695051119	1
0	6345	1977.460645553041	2
0	6346	1978.164658050139	1
0	6351	1979.107602506954	0
0	6372	1990.917225087724	1
0	6373	1993.854703119228	0
0	6386	1996.119291898849	1
0	6387	1997.901033116103	0
0	6401	2000.143785425042	1
0	6403	2001.839808283973	2
0	6405	2005.440712686666	3
0	6406	2005.450209860797	2
0	6412	2007.292059369278	1
0	6418	2008.223316296735	0
0	6431	2018.225013715847	1
0	6434	2018.662940710854	0
0	6450	2020.909854390549	1
0	6455	2023.675294560488	0
0	6483	2031.819183616807	1
0	6484	2032.269949081886	0
0	6493	2033.151723809894	1
0	6500	2040.866720788716	0
0	6519	2043.253134417238	1
0	6522	2044.147789653138	0
0	6546	2052.144910199752	1
0	6547	2052.458188012637	0
0	6561	2055.242038094306	1
0	6564	2056.080090688935	2
0	6567	2057.145709611137	3
0	6572	2061.09379473986	2
0	6578	2061.916014286505	1
0	6584	2062.753493896984	2
0	6586	2063.535858509632	1
0	6592	2065.292291232231	0
0	6604	2068.962957653498	1
0	6606	2069.227202181455	2
0	6609	2071.481620046847	1
0	6616	2071.52588381797	2
0	6618	2071.970123683231	3
0	6621	2076.342318685251	2
0	6627	2076.795178130847	3
0	6628	2077.571267661097	2
0	6634	2078.348042998069	3
0	6638	2081.525838614952	4
0	6650	2086.649619586035	3
0	6655	2086.835750633714	2
0	6660	2088.364890513039	1
0	6665	2088.960851303707	0
0	6671	2089.452821156806	1
0	6673	2090.272781224139	0
0	6710	2098.425610227736	1
0	6712	2098.949682893314	2
0	6715	2100.074332948617	1
0	6721	2101.607084619103	2
0	6722	2102.388465987377	1
0	6727	2102.450267425241	0
0	6736	2103.433302050474	1
0	6738	2106.922890349601	2
0	6749	2112.494047418542	1
0	6755	2112.774489936268	2
0	6757	2112.99110435087	1
0	6763	2113.668896863509	0
0	6780	2117.589048016124	1
0	6782	2120.273559402021	0
0	6792	2121.184733412983	1
0	6795	2122.265094343991	0
0	6804	2123.668134794401	1
0	6809	2125.461200158245	2
0	6810	2126.212059103241	1
0	6816	2126.509602747914	0
0	6822	2126.63759496477	1
0	6823	2126.835676400489	0
0	6861	2138.550227175242	1
0	6864	2140.981206367902	0
0	6881	2144.848908659989	1
0	6883	2145.548273298045	2
0	6884	2146.037056357059	1
0	6889	2147.37143005458	0
0	6898	2150.799255899096	1
0	6899	2152.468819415733	0
0	6920	2160.270912837131	1
0	6928	2164.711624345724	2
0	6930	2166.943030360287	3
0	6931	2167.943576050269	2
0	6938	2171.714645982238	1
0	6948	2176.545671938685	0
0	6957	2180.073236078629	1
0	6961	2181.534629833985	2
0	6963	2182.500226588421	3
0	6965	2187.031166571031	4
0	6966	2191.795249349883	3
0	6972	2192.336943176981	2
0	6980	2192.931250999268	1
0	6987	2196.416382891986	2
0	6988	2196.593210055909	1
0	6993	2198.303111840021	0
0	6999	2198.413546540912	1
0	7000	2198.680550932263	0
0	7006	2199.776952744161	1
0	7008	2201.621998837045	0
0	7014	2201.63474676371	1
0	7021	2203.763963058288	2
0	7024	2205.142219138388	1
0	7031	2205.42451918497	2
0	7034	2206.46773945212	3
0	7037	2208.593430638849	4
0	7039	2208.877891615615	5
0	7040	2209.051197017907	4
0	7046	2211.216799136183	3
0	7051	2211.737582826806	2
0	7058	2211.869955593423	1
0	7066	2213.261937433245	2
0	7068	2214.500801771109	1
0	7075	2218.153554368635	0
0	7082	2221.535398061456	1
0	7083	2221.679629541858	0
0	7105	2228.735880415077	1
0	7112	2231.809300093527	2
0	7114	2233.348959088418	1
0	7121	2234.411194565146	2
0	7123	2234.548164153536	3
0	7124	2237.826292553231	2
0	7130	2238.636603797843	3
0	7134	2239.377005513614	4
0	7136	2239.699573013168	3
0	7144	2241.492485841651	2
0	7152	2243.029092053927	3
0	7154	2244.57186161595	4
0	7156	2244.946868749158	5
0	7157	2246.119567205076	4
0	7163	2246.146714173885	5
0	7168	2250.563647182452	6
0	7169	2251.290499418872	5
0	7174	2252.776010215674	4
0	7180	2252.905450458764	5
0	7181	2254.20174480591	4
0	7187	2256.047985875947	3
0	7194	2257.982435713925	2
0	7199	2258.953629701157	1
0	7207	2262.233446880207	2
0	7208	2265.437288013547	1
0	7216	2267.917033156876	2
0	7218	2268.892551783703	3
0	7219	2269.349533197991	2
0	7227	2272.642866133967	1
0	7234	2273.267277603735	0
0	7257	2278.630751317496	1
0	7258	2279.671477363596	0
0	7266	2280.970216572906	1
0	7267	2281.033106104871	0
0	7312	2292.612874740755	1
0	7314	2296.216485402221	2
0	7316	2297.189770440876	3
0	7318	2297.468121085006	4
0	7321	2299.239718853563	3
0	7327	2299.395121124239	4
0	7328	2301.034721766021	3
0	7333	2302.036239802144	2
0	7341	2303.917751505254	1
0	7346	2304.054162850793	0
0	7361	2306.360678870094	1
0	7363	2307.243708140035	2
0	7365	2307.476866153033	3
0	7366	2307.699403654242	2
0	7372	2309.498838746446	1
0	7377	2310.47885251564	0
0	7385	2311.11511969369	1
0	7390	2313.543156858374	2
0	7393	2316.163099553159	3
0	7394	2318.5186914369	2
0	7400	2319.966638275163	1
0	7406	2321.285642854441	0
0	7417	2321.82404934273	1
0	7419	2323.497997609407	0
0	7436	2329.954852738565	1
0	7438	2330.07119855526	2
0	7441	2332.638978838228	1
0	7448	2333.370841037212	0
0	7456	2333.871870515447	1
0	7458	2334.597657721242	0
0	7476	2337.40964775376	1
0	7479	2338.046201058789	0
0	7498	2343.665063782621	1
0	7500	2344.394671529427	2
0	7501	2344.420556918805	1
0	7507	2346.479704792875	2
0	7508	2348.826916451865	1
0	7515	2350.191926861431	0
0	7533	2354.873489746271	1
0	7540	2363.322844063285	0
0	7560	2374.832512574866	1
0	7565	2375.80396513705	0
0	7611	2401.371191047532	1
0	7613	2402.389927411843	2
0	7614	2402.960845259344	1
0	7621	2403.924763631625	0
0	7642	2409.759016061931	1
0	7644	2410.548006692216	2
0	7645	2411.180788595538	1
0	7653	2412.015416546274	2
0	7657	2413.808413836112	3
0	7659	2414.888398833071	2
0	7664	2415.034867458778	1
0	7671	2416.853663976536	0
0	7695	2421.703265407327	1
0	7697	2421.872929975964	2
0	7699	2421.968560717165	3
0	7701	2422.8900989586	4
0	7705	2424.816559563454	5
0	7707	2425.416375517841	6
0	7708	2425.570405771511	5
0	7714	2427.224011548442	6
0	7716	2427.322950467429	7
0	7717	2427.93880914449	6
0	7723	2428.978793384758	5
0	7728	2429.821583164468	4
0	7734	2430.061425377556	5
0	7735	2431.035616318447	4
0	7743	2431.883526177348	3
0	7750	2432.222013508208	4
0	7751	2433.141208667662	3
0	7757	2433.212926156363	4
0	7760	2435.121994624865	3
0	7764	2435.138354543565	4
0	7770	2443.474308721661	5
0	7772	2443.811421529877	6
0	7773	2443.927254899846	5
0	7782	2448.662961590978	4
0	7788	2449.599223835477	5
0	7794	2452.224597187254	6
0	7797	2454.02398011285	5
0	7804	2455.863992992709	4
0	7810	2459.145851918684	3
0	7815	2459.51494927202	2
0	7820	2459.854703210302	1
0	7825	2461.112191519785	0
0	7829	2461.441359977566	1
0	7832	2462.830222863103	0
0	7840	2466.673200926072	1
0	7844	2469.9427903498	2
0	7845	2472.446724896184	1
0	7851	2474.695754349168	0
0	7857	2474.819116644036	1
0	7858	2476.974981410927	0
0	7882	2478.900321120726	1
0	7883	2479.105451507516	0
0	7924	2496.076328379676	1
0	7929	2501.242429881054	0
0	7937	2503.826118053503	1
0	7939	2504.067416163388	2
0	7943	2505.158262009654	1
0	7949	2506.185862040061	2
0	7951	2506.433867917389	1
0	7958	2508.675962846298	0
0	7987	2514.185619247536	1
0	7989	2515.149900605736	2
0	7990	2515.70160641784	1
0	7998	2519.548404156792	0
0	8004	2519.649817124908	1
0	8010	2521.653370323982	2
0	8014	2523.197521678212	1
0	8021	2526.568004571034	0
0	8047	2534.051907221036	1
0	8048	2537.099763097354	0
0	8058	2538.25601775729	1
0	8060	2539.044470918589	2
0	8065	2543.566393146439	3
0	8067	2543.595506899077	4
0	8068	2544.526173242302	3
0	8074	2544.884697878624	2
0	8081	2546.433191888967	1
0	8087	2548.403425010364	0
0	8103	2550.516542262665	1
0	8104	2550.903970169611	0
0	8124	2553.842140252837	1
0	8126	2553.93430518406	0
0	8147	2558.976994211922	1
0	8153	2561.461458325238	2
0	8155	2565.465419858051	3
0	8159	2569.484660367291	4
0	8161	2573.58351311668	5
0	8162	2576.088524065535	4
0	8169	2577.143774898825	5
0	8171	2577.596496044189	6
0	8172	2578.882457361294	5
0	8181	2582.015939001407	6
0	8184	2582.652700997779	7
0	8185	2582.896390075673	6
0	8193	2584.83664664141	5
0	8198	2584.947562723662	4
0	8205	2586.881389927746	3
0	8210	2587.075454547319	2
0	8216	2587.524629360025	1
0	8223	2589.897730728576	0
0	8251	2597.985412315194	1
0	8252	2598.345625099938	0
0	8271	2604.837613111163	1
0	8276	2610.07219297059	0
0	8283	2611.981678991201	1
0	8284	2612.261197764322	0
0	8301	2617.324765870358	1
0	8303	2617.532090706377	2
0	8304	2617.854290796678	1
0	8314	2620.446249482586	2
0	8316	2621.03727494944	3
0	8317	2621.667826747322	2
0	8324	2623.453486005801	1
0	8333	2628.591641470956	0
0	8339	2629.023933548218	1
0	8341	2631.340881142984	0
0	8376	2640.75704645178	1
0	8381	2642.113575834691	0
0	8398	2646.50144496056	1
0	8400	2650.751969770273	2
0	8402	2651.110127000797	3
0	8405	2653.262000088049	2
0	8412	2653.95841636324	1
0	8417	2655.236995096062	0
0	8426	2656.654199114389	1
0	8428	2657.001606421985	2
0	8432	2658.625718506345	3
0	8434	2658.913530832637	4
0	8435	2659.578920437777	3
0	8441	2660.409892997722	4
0	8443	2661.118270513514	5
0	8444	2661.134643011763	4
0	8450	2662.437115278004	3
0	8455	2662.461026344224	2
0	8465	2666.036610995377	1
0	8471	2667.87265722	0
0	8480	2671.060150762008	1
0	8486	2674.257566196457	2
0	8488	2674.949309880419	1
0	8494	2675.843113764749	0
0	8500	2675.964432695978	1
0	8503	2677.2564494482	0
0	8532	2689.10958065123	1
0	8534	2690.326600676374	2
0	8535	2692.926860636133	1
0	8541	2693.130820357907	2
0	8543	2693.378487044433	3
0	8545	2694.256952097104	2
0	8551	2694.875656424096	3
0	8552	2695.678587394614	2
0	8559	2696.571908807167	3
0	8563	2699.81394099081	2
0	8569	2699.988416554567	3
0	8571	2701.319665466406	4
0	8572	2702.237414946118	3
0	8578	2704.055508520375	2
0	8584	2704.874065683769	1
0	8589	2706.477946232414	0
0	8595	2707.356591789149	1
0	8601	2708.109097316487	0
0	8625	2711.84410430641	1
0	8628	2717.151194305284	0
0	8646	2720.528521055248	1
0	8648	2720.647333022092	2
0	8649	2720.719549259739	1
0	8658	2724.065290774873	2
0	8660	2726.646893047273	3
0	8661	2728.228800114588	2
0	8667	2728.473422900173	1
0	8673	2728.938946519705	0
0	8679	2729.804168316325	1
0	8685	2732.786656994725	2
0	8686	2735.267017769344	1
0	8693	2736.304961943829	2
0	8695	2736.986691985352	1
0	8701	2737.144721082547	2
0	8703	2738.666966343751	3
0	8705	2739.362783555469	2
0	8712	2740.197517382641	3
0	8715	2740.35760542353	2
0	8721	2741.101718789336	1
0	8726	2742.07823833508	0
0	8732	2742.124849017031	1
0	8736	2744.300267225388	0
0	8742	2745.0386548017	1
0	8743	2745.492282964036	0
0	8789	2766.29552498263	1
0	8791	2768.505967605898	0
0	8799	2769.910965656815	1
0	8800	2770.236650127794	0
0	8822	2774.654272734004	1
0	8826	2781.377997134254	2
0	8827	2782.669726263954	1
0	8834	2783.802154368255	2
0	8835	2784.139625870188	1
0	8843	2789.230080134861	0
0	8878	2806.369706353202	1
0	8880	2806.963134080162	2
0	8886	2811.15025933376	3
0	8887	2811.552552061612	2
0	8892	2812.004444198012	1
0	8897	2812.278729294938	0
0	8916	2817.939531450611	1
0	8918	2818.01288705436	2
0	8919	2819.301518339034	1
0	8925	2820.724583451796	0
0	8942	2826.141988196826	1
0	8943	2826.327489849494	0
0	8975	2834.662297029002	1
0	8977	2835.817475404969	2
0	8980	2839.170088656641	1
0	8990	2840.955686441162	2
0	8993	2843.198852812038	1
0	8998	2843.261123721772	0
0	9012	2846.692884088755	1
0	9014	2847.826642667379	0
0	9024	2850.809784834088	1
0	9026	2852.209334500102	2
0	9029	2854.536460801863	1
0	9036	2855.653472032415	2
0	9038	2855.693620644542	3
0	9040	2856.750819147695	4
0	9042	2857.277191603763	3
0	9047	2857.894258579807	2
0	9055	2858.945891405606	1
0	9061	2859.018913443238	0
0	9076	2861.263702105771	1
0	9077	2864.966687173788	0
0	9087	2872.333599202504	1
0	9089	2872.396670915694	2
0	9091	2873.413166074404	3
0	9094	2874.542261403321	2
0	9100	2875.814417137565	1
0	9107	2876.953276588371	0
0	9119	2879.208409722538	1
0	9120	2879.418501352933	0
0	9136	2885.213829315755	1
0	9140	2888.004592086994	2
0	9143	2889.725916345731	3
0	9144	2890.351477273601	2
0	9152	2892.144116259499	3
0	9156	2894.703139305649	4
0	9158	2897.675818574737	5
0	9159	2898.600014144418	4
0	9165	2900.054696055125	3
0	9170	2900.29181577978	2
0	9178	2901.024880165701	1
0	9183	2901.221304004058	0
0	9213	2906.21360988086	1
0	9215	2907.590070157084	2
0	9219	2908.994655073552	1
0	9224	2909.426754342494	0
0	9255	2922.647796842551	1
0	9258	2924.967974134984	0
0	9264	2927.653236074561	1
0	9267	2930.203695650359	2
0	9270	2933.161533573884	1
0	9276	2933.205976346521	2
0	9279	2933.353131850299	3
0	9282	2934.815964099721	2
0	9290	2937.187758195041	1
0	9296	2940.774935784037	0
0	9315	2946.365850157031	1
0	9316	2947.726553761586	0
0	9346	2955.807903748483	1
0	9349	2956.37732614731	2
0	9354	2965.142328996844	1
0	9361	2968.026835403032	0
0	9378	2974.184065376217	1
0	9380	2974.337615153608	2
0	9382	2976.630216864349	1
0	9389	2980.036381510302	2
0	9393	2981.375943576193	3
0	9400	2985.291174676892	2
0	9406	2987.278237461216	3
0	9409	2992.024431020799	2
0	9415	2992.06651410886	3
0	9417	2992.372293038654	2
0	9422	2992.533527125729	1
0	9429	2994.447291550332	0
0	9446	2998.129073737805	1
0	9447	3000.794643285432	0
0	9480	3005.337761968114	1
0	9482	3005.626878454133	0
0	9513	3014.154265580185	1
0	9514	3016.943511674467	0
0	9554	3035.520071656245	1
0	9555	3035.792101658757	0
0	9561	3036.911184229752	1
0	9564	3038.628351045188	2
0	9565	3043.616179968909	1
0	9571	3043.881602429285	0
0	9582	3044.907683435325	1
0	9585	3045.651671184276	2
0	9586	3045.65172494042	1
0	9593	3046.349480057401	2
0	9595	3047.383117390575	3
0	9597	3047.484935703138	4
0	9599	3048.447237254261	3
0	9604	3050.124008778723	2
0	9611	3051.426981005883	1
0	9617	3053.94728801635	0
0	9637	3066.512732235397	1
0	9639	3067.240762501198	2
0	9641	3067.683929502502	3
0	9642	3067.74365498416	2
0	9649	3068.539405902709	3
0	9652	3069.950903694559	2
0	9657	3071.090111865874	1
0	9663	3071.195702803101	2
0	9664	3073.236893044854	1
0	9670	3074.908373353718	0
0	9676	3076.834165649879	1
0	9679	3077.44620553451	2
0	9682	3078.403182634833	3
0	9685	3078.909824889105	4
0	9693	3081.392434294582	3
0	9704	3084.619926215601	4
0	9705	3086.305440711685	3
0	9714	3089.58080905347	2
0	9721	3090.836399193881	3
0	9722	3090.956104439139	2
0	9727	3091.22986389951	1
0	9733	3093.563656335451	2
0	9734	3094.212180904523	1
0	9742	3095.933986278583	2
0	9745	3098.178965626065	3
0	9752	3099.950781478188	4
0	9754	3104.264745714455	3
0	9760	3104.861812223374	4
0	9761	3105.298339811194	3
0	9766	3106.789591577012	2
0	9773	3107.147503769386	3
0	9775	3108.438294595996	4
0	9776	3108.805102587871	3
0	9782	3109.15532406478	4
0	9785	3110.960215413133	3
0	9791	3111.50304453895	4
0	9792	3111.73575933436	3
0	9797	3111.942839971639	2
0	9803	3112.702883401593	3
0	9805	3115.133545650342	4
0	9807	3117.16684953166	5
0	9808	3118.77631158678	4
0	9816	3126.849030677743	3
0	9822	3129.07247130557	2
0	9830	3129.391129502804	3
0	9831	3131.041348345064	2
0	9837	3132.829286921805	3
0	9839	3134.484259044755	4
0	9843	3135.287247197822	5
0	9847	3136.4250950042	6
0	9851	3139.845694922811	5
0	9856	3139.932185254761	4
0	9860	3141.311081964701	5
0	9862	3142.518222563974	6
0	9867	3143.532556034004	5
0	9872	3143.75131013023	4
0	9881	3145.789325870675	3
0	9887	3148.576154700168	4
0	9888	3152.2282002389	3
0	9895	3153.67618787958	4
0	9898	3154.716089319028	3
0	9903	3155.043222455549	2
0	9908	3155.307026087252	1
0	9913	3156.467453112085	0
0	9929	3160.622329944765	1
0	9930	3161.053325280853	0
0	9936	3162.129270200255	1
0	9943	3166.201786782031	2
0	9954	3172.582293273463	3
0	9956	3173.336727674991	4
0	9957	3175.125601934878	3
0	9965	3175.54628460693	2
0	9971	3175.659815100048	3
0	9975	3178.856531680475	2
0	9981	3179.88376416517	1
0	9987	3180.411841404502	2
0	9989	3180.513079035035	3
0	9991	3183.308841188787	2
0	9996	3183.546970920971	1
0	10001	3184.386366005781	0
0	10025	3194.020681526227	1
0	10027	3194.354845210811	2
0	10028	3194.949361256799	1
0	10035	3197.461587747092	2
0	10036	3197.914748179295	1
0	10046	3198.552128720667	2
0	10051	3203.178520799347	3
0	10055	3204.412995262619	4
0	10056	3205.021972436754	3
0	10061	3205.280629388394	2
0	10068	3206.252463280531	1
0	10073	3206.993336441723	0
0	10098	3214.007731734279	1
0	10099	3214.104739920964	0
0	10106	3217.571929966269	1
0	10109	3218.572624407944	0
0	10120	3221.340871885011	1
0	10124	3222.222272081864	2
0	10128	3225.215855138766	1
0	10134	3228.900953434335	0
0	10157	3233.348372180821	1
0	10160	3238.19025395896	0
0	10172	3245.669333204395	1
0	10174	3245.944928846433	2
0	10175	3246.076125068525	1
0	10180	3249.395924882699	0
0	10189	3249.947980381502	1
0	10193	3250.382653820285	2
0	10197	3253.09101435839	3
0	10198	3253.79852089678	2
0	10205	3255.037360415972	3
0	10207	3259.83880850886	2
0	10213	3260.409071034997	1
0	10221	3261.270051902409	0
0	10236	3264.140523917663	1
0	10239	3266.011742370408	0
0	10252	3271.711827225272	1
0	10255	3274.687584846035	0
0	10266	3275.34435430999	1
0	10268	3275.812996213779	0
0	10277	3279.599065325283	1
0	10282	3285.06304967055	0
0	10296	3292.645835249235	1
0	10299	3297.955432142879	0
0	10330	3312.412573248104	1
0	10333	3313.991667315027	0
0	10339	3314.212639360322	1
0	10340	3314.899550921147	0
0	10348	3316.496113447499	1
0	10352	3316.838009439337	2
0	10353	3317.651738053313	1
0	10359	3317.860493755404	2
0	10360	3317.865626607899	1
0	10368	3320.542523397701	2
0	10370	3322.337068200698	3
0	10372	3326.438735616023	4
0	10374	3326.581304173581	5
0	10376	3327.66855377185	6
0	10380	3328.908457689796	7
0	10381	3329.456438745743	6
0	10387	3329.64657545967	7
0	10390	3332.726699380351	8
0	10392	3335.917820321775	9
0	10393	3337.378617812777	8
0	10399	3337.946890711589	7
0	10408	3340.928335529096	6
0	10414	3341.225694325745	5
0	10419	3341.407321158527	4
0	10424	3342.522109342958	3
0	10434	3344.338833859463	4
0	10435	3344.444818830548	3
0	10441	3344.574125319209	4
0	10443	3344.866995758219	5
0	10453	3354.547793436925	4
0	10461	3357.283924029495	3
0	10467	3358.244679201889	2
0	10473	3360.940539585484	1
0	10479	3365.591426685009	0
0	10494	3369.473541784133	1
0	10495	3369.591807108997	0
0	10507	3371.668569413254	1
0	10508	3372.187862219722	0
0	10521	3374.60706717268	1
0	10523	3375.161038304556	2
0	10529	3378.22931597526	3
0	10530	3380.0272910852	2
0	10535	3380.178615786989	1
0	10540	3380.279506984686	0
0	10551	3381.438721712753	1
0	10554	3383.862817374897	2
0	10556	3384.198305177277	3
0	10557	3384.437322250887	2
0	10562	3384.687213574226	1
0	10568	3385.00950379377	2
0	10570	3386.646999220063	1
0	10578	3391.149629480171	2
0	10580	3391.552651831192	3
0	10581	3391.649851534741	2
0	10588	3393.860077999606	1
0	10595	3395.71288153278	2
0	10596	3395.838607098401	1
0	10604	3396.017766323949	2
0	10606	3396.199469976457	3
0	10608	3398.772403740426	2
0	10614	3399.003634091996	3
0	10616	3400.944054586662	4
0	10617	3400.977233715195	3
0	10621	3401.387216729121	4
0	10623	3402.328881417495	5
0	10627	3404.472738259856	4
0	10632	3405.956650687492	3
0	10638	3406.449302094661	4
0	10642	3408.253552336534	5
0	10646	3409.385808739758	4
0	10654	3414.228663396629	3
0	10659	3414.42718333485	2
0	10665	3417.148514164601	3
0	10671	3421.963298760089	2
0	10677	3423.57671504426	3
0	10678	3424.657813423818	2
0	10685	3426.787196356801	1
0	10691	3427.989445325893	0
0	10697	3428.063046411345	1
0	10698	3428.087175748253	0
0	10704	3428.66989358596	1
0	10712	3432.444428976433	0
0	10718	3434.7637708211	1
0	10721	3436.507229733077	2
0	10722	3437.216284443602	1
0	10733	3439.720681669794	2
0	10735	3440.313949473044	3
0	10740	3440.970790421366	4
0	10742	3441.071287838834	5
0	10743	3442.820618829731	4
0	10749	3444.348690272715	3
0	10754	3445.455069900123	2
0	10759	3445.678130787078	1
0	10766	3448.19582643181	0
0	10786	3452.202899219197	1
0	10788	3452.990879571288	0
0	10794	3455.495075678289	1
0	10795	3455.876381831726	0
0	10806	3457.15565719943	1
0	10812	3459.309180187137	0
0	10825	3461.507968105763	1
0	10827	3463.831042443266	2
0	10829	3466.376412585526	3
0	10831	3468.980940075316	4
0	10833	3470.278460882183	5
0	10834	3475.034980668451	4
0	10841	3477.43440268361	3
0	10848	3479.013975149395	2
0	10857	3484.097018111074	1
0	10862	3484.16338508114	0
0	10868	3484.842497713761	1
0	10869	3485.670440353519	0
0	10878	3486.775577986571	1
0	10880	3488.932657516456	2
0	10882	3490.831615750415	3
0	10888	3492.86242300327	2
0	10898	3493.836424546908	3
0	10904	3498.382726683213	4
0	10905	3498.776734672479	3
0	10916	3501.279941314637	2
0	10925	3501.629163215567	1
0	10934	3503.833456155919	0
0	10941	3506.768992782208	1
0	10943	3506.927716705535	2
0	10945	3508.157273287664	3
0	10947	3508.188696773478	4
0	10948	3509.491561281907	3
0	10954	3510.397783522204	2
0	10959	3510.529488634886	1
0	10964	3511.754341946699	0
0	10991	3519.154216761323	1
0	10992	3519.282703105069	0
0	11010	3521.746498073637	1
0	11011	3522.221506269046	0
0	11018	3522.923197601269	1
0	11021	3524.375175003575	0
0	11027	3524.696236154127	1
0	11029	3526.774801503624	0
0	11058	3532.941172610203	1
0	11060	3533.492558609633	2
0	11064	3537.576869532095	3
0	11066	3537.855753168648	4
0	11067	3538.246559727373	3
0	11073	3538.811863147018	2
0	11083	3540.366374671966	3
0	11085	3545.272189206878	4
0	11087	3547.117466602203	5
0	11089	3548.360054332798	6
0	11092	3549.817914759256	5
0	11098	3550.598235048123	6
0	11100	3550.877217510088	5
0	11107	3551.861108943559	4
0	11112	3552.234665935027	3
0	11118	3553.59773467589	2
0	11125	3560.181879513267	1
0	11132	3561.821077973098	0
0	11143	3563.145872158984	1
0	11146	3563.473301634802	0
0	11152	3565.09481544058	1
0	11155	3566.821853200024	0
0	11186	3570.876078976885	1
0	11188	3571.374758037202	2
0	11190	3572.386289230605	3
0	11192	3573.997863841911	4
0	11193	3576.008204547821	3
0	11200	3577.582108243259	4
0	11204	3581.391934408534	5
0	11205	3581.762092804028	4
0	11210	3581.839788851052	3
0	11215	3582.143923410494	2
0	11222	3584.63375744153	1
0	11228	3585.402297392128	2
0	11232	3586.411615184609	3
0	11237	3587.680988474186	4
0	11240	3589.501302386978	3
0	11246	3590.347089413917	4
0	11249	3591.810749794266	5
0	11251	3592.36961614168	6
0	11252	3593.388351811851	5
0	11259	3600.530832650171	6
0	11262	3601.924366840251	5
0	11270	3602.810585658891	6
0	11271	3603.353832745808	5
0	11279	3608.013123388463	6
0	11280	3609.459292496849	5
0	11285	3609.54579840941	4
0	11292	3610.304104603147	3
0	11298	3611.063096799377	2
0	11304	3611.98191665492	1
0	11309	3612.170218789441	0
0	11315	3612.42712232528	1
0	11316	3613.095788605849	0
0	11330	3618.338688299551	1
0	11336	3619.246120365294	2
0	11338	3620.71697730083	3
0	11339	3620.872232140971	2
0	11348	3625.451933455023	1
0	11354	3625.496670452688	2
0	11355	3625.62139862792	1
0	11360	3627.21416466095	0
0	11406	3637.828099912931	1
0	11407	3639.501471982012	0
0	11419	3646.965055130316	1
0	11424	3648.801952936708	0
0	11441	3653.189311334141	1
0	11443	3653.27339356831	2
0	11447	3659.386608155379	3
0	11451	3664.122567027562	4
0	11454	3666.357458958605	3
0	11461	3667.537087063383	2
0	11466	3667.611042317907	1
0	11473	3670.392162893532	0
0	11498	3677.314018024071	1
0	11506	3681.612224531636	2
0	11511	3687.217928454427	1
0	11516	3688.279995056938	0
0	11523	3689.696897442604	1
0	11525	3694.428060784133	0
0	11536	3703.443874411184	1
0	11537	3706.639912191262	0
0	11561	3712.329064220363	1
0	11567	3714.546167654221	2
0	11569	3715.433118103357	3
0	11576	3717.175039460438	2
0	11591	3723.738765747019	3
0	11592	3724.623183951025	2
0	11599	3724.70491666592	3
0	11601	3725.380208731516	4
0	11603	3725.472392776858	5
0	11604	3727.139957874177	4
0	11610	3727.454606361336	5
0	11612	3729.917871758089	4
0	11617	3730.066746059024	3
0	11629	3735.796772686782	2
0	11637	3736.253741959732	1
0	11642	3736.466740253968	0
0	11648	3737.055994537563	1
0	11649	3738.406057897609	0
0	11662	3743.919715700282	1
0	11663	3744.47082998522	0
0	11683	3750.921793743817	1
0	11685	3753.624789184735	0
0	11694	3754.850302469552	1
0	11705	3762.009225766313	0
0	11712	3762.432085825626	1
0	11713	3764.663951836899	0
0	11721	3766.57193910019	1
0	11723	3766.669088347904	2
0	11724	3767.565877827284	1
0	11729	3767.850234381263	0
0	11747	3769.448320535404	1
0	11750	3775.571348008741	2
0	11751	3776.476611557119	1
0	11757	3776.897382762598	0
0	11809	3793.176441664441	1
0	11812	3796.143222307122	0
0	11819	3796.565890378776	1
0	11821	3800.040043516581	0
0	11841	3801.50693802266	1
0	11845	3802.105377784965	2
0	11847	3803.025023862509	1
0	11853	3803.871164382957	0
0	11897	3816.567472855586	1
0	11900	3817.588304243171	0
0	11948	3834.195125055811	1
0	11949	3834.447615664403	0
0	11964	3840.853560794169	1
0	11968	3844.69207331828	2
0	11973	3845.980573292413	3
0	11974	3846.60241301609	2
0	11979	3846.778363061426	1
0	11985	3848.31277626086	0
0	11997	3849.426021160113	1
0	11999	3850.602450818655	0
0	12005	3850.794202179632	1
0	12008	3852.136195065541	0
0	12014	3852.349846892705	1
0	12017	3856.362522596501	0
0	12033	3859.22637408812	1
0	12038	3861.263357003189	0
0	12044	3862.289258717655	1
0	12046	3867.365001080085	0
0	12057	3871.517293386024	1
0	12064	3872.063955205558	0
0	12073	3876.735868052151	1
0	12075	3876.974682320546	2
0	12081	3882.343615342216	3
0	12082	3883.939412420229	2
0	12087	3884.16000596986	1
0	12096	3884.524249436902	2
0	12098	3884.560480183979	3
0	12099	3884.569478615742	2
0	12104	3885.004045131409	1
0	12110	3886.365551884581	0
0	12118	3887.099830731153	1
0	12119	3887.42204931985	0
0	12129	3891.054001179797	1
0	12130	3892.371189181524	0
0	12155	3896.338906048369	1
0	12156	3898.286252179877	0
0	12164	3899.602926397286	1
0	12165	3899.671403291949	0
0	12196	3907.620939601625	1
0	12200	3907.699508650251	2
0	12201	3907.80594687597	1
0	12206	3908.44912157365	0
0	12220	3911.471561163515	1
0	12222	3912.091177547493	0
0	12228	3913.004069696027	1
0	12234	3913.96683611297	2
0	12235	3913.991304418371	1
0	12241	3914.419241949908	0
0	12263	3923.759073402245	1
0	12265	3924.29688970749	2
0	12267	3924.590225820582	3
0	12269	3925.764734417507	4
0	12273	3928.135282193242	5
0	12274	3928.548669174984	4
0	12280	3928.664731914181	5
0	12284	3932.301095362817	4
0	12289	3932.441724297171	3
0	12295	3933.081123894648	2
0	12303	3934.655384549621	1
0	12308	3935.588910000386	0
0	12324	3939.319850038764	1
0	12325	3940.71197876932	0
0	12339	3946.597162631421	1
0	12340	3946.648985508367	0
0	12346	3946.682438625552	1
0	12347	3948.581841054792	0
0	12357	3951.472178201579	1
0	12358	3953.2156021068	0
0	12377	3961.848185922728	1
0	12379	3961.890220860338	2
0	12380	3963.040262347394	1
0	12385	3963.885372321452	0
0	12401	3964.470971150275	1
0	12405	3966.234878570196	0
0	12411	3966.781732847581	1
0	12412	3967.025633129066	0
0	12437	3970.632139430692	1
0	12441	3971.138484219794	2
0	12443	3971.485308677623	3
0	12445	3972.681083283853	2
0	12450	3973.130008891236	1
0	12455	3973.843330331812	0
0	12471	3976.564869378638	1
0	12474	3978.848843023008	2
0	12476	3979.263912521765	3
0	12477	3980.482869457146	2
0	12484	3983.308227226878	3
0	12485	3986.692344332204	2
0	12491	3986.827789939124	3
0	12492	3988.235362727789	2
0	12501	3990.375649328851	1
0	12509	3995.990753750157	0
0	12521	3999.24628922777	1
0	12525	4001.341139625584	0
0	12541	4004.084577315767	1
0	12542	4004.189424481066	0
0	12555	4007.324852803716	1
0	12556	4009.51746923939	0
0	12562	4011.240480832823	1
0	12565	4017.324782345494	2
0	12567	4017.738164897846	3
0	12569	4020.326253111799	4
0	12570	4020.347656455831	3
0	12575	4020.563580787734	2
0	12580	4021.479698733895	1
0	12585	4021.710158307667	0
0	12602	4027.943904690831	1
0	12605	4028.313864346988	0
0	12622	4034.999335875945	1
0	12626	4035.239371559302	2
0	12627	4037.634325149911	1
0	12635	4041.67749739833	0
0	12642	4043.27828493354	1
0	12644	4046.280581019033	2
0	12645	4046.342763159765	1
0	12650	4046.420833413634	0
0	12657	4048.081194536383	1
0	12658	4049.486217684422	0
0	12684	4052.989158102971	1
0	12685	4053.147620172063	0
0	12702	4054.257846391037	1
0	12704	4056.665782143559	0
0	12712	4062.141484697054	1
0	12713	4062.741560105764	0
0	12724	4065.139752683032	1
0	12726	4065.631294467712	0
0	12741	4072.5954470012	1
0	12743	4073.2084875834	2
0	12749	4079.715092276469	3
0	12750	4080.438121260355	2
0	12757	4081.299000065115	3
0	12759	4082.478815820421	4
0	12763	4086.455076370444	5
0	12764	4088.274712781319	4
0	12770	4088.783760074859	5
0	12773	4089.364797038734	6
0	12776	4090.998839245947	5
0	12783	4093.358418522238	4
0	12790	4094.968495152177	5
0	12792	4096.503364166305	6
0	12793	4097.629859761117	5
0	12799	4100.198225980378	4
0	12805	4102.510679560644	3
0	12814	4103.903972888456	4
0	12815	4104.745854354095	3
0	12821	4105.088529509366	2
0	12827	4105.992997036827	3
0	12829	4106.41936004896	4
0	12831	4110.009853938043	5
0	12832	4110.236671407146	4
0	12838	4110.859280209154	5
0	12844	4113.086388034925	4
0	12850	4113.366260742485	5
0	12852	4113.594676173334	6
0	12854	4114.945679675422	7
0	12855	4115.18350052258	6
0	12860	4115.984731403145	5
0	12871	4119.950547204218	4
0	12876	4123.248520615611	3
0	12882	4125.382743167083	2
0	12888	4126.646002141734	1
0	12897	4132.997070457402	0
0	12909	4133.912595725885	1
0	12911	4134.36035084115	2
0	12912	4134.608443814372	1
0	12917	4136.23592592395	0
0	12923	4137.274001401915	1
0	12924	4138.12891624828	0
0	12938	4143.924670797862	1
0	12941	4144.984006348189	2
0	12942	4145.691738789396	1
0	12948	4146.537468563389	0
0	12954	4146.863303438602	1
0	12956	4148.168886563188	2
0	12966	4150.741969677476	3
0	12967	4151.046143643692	2
0	12972	4152.516777599304	1
0	12981	4154.721087391598	2
0	12983	4155.08277305345	3
0	12984	4155.849681313737	2
0	12989	4156.240974885362	1
0	12994	4157.27552915023	0
0	13010	4161.88808739066	1
0	13012	4168.117096478285	2
0	13014	4168.175651942182	3
0	13016	4168.566904013857	4
0	13020	4170.075066724171	5
0	13023	4176.565513395737	4
0	13029	4176.863364697524	3
0	13035	4179.070942991308	2
0	13040	4182.106794703846	1
0	13048	4183.762455533741	2
0	13049	4184.037797940091	1
0	13055	4184.375358320593	0
0	13084	4190.154149864067	1
0	13085	4190.286520776668	0
0	13091	4190.564299490124	1
0	13095	4192.290861851574	2
0	13098	4194.210552780615	3
0	13100	4196.30934084953	4
0	13102	4197.574180182809	5
0	13105	4201.205084742098	4
0	13115	4205.830804049581	5
0	13118	4211.948198448552	6
0	13121	4212.353130378347	5
0	13127	4213.779701657615	4
0	13133	4215.650972464952	3
0	13138	4216.860340424466	2
0	13143	4217.511042991286	1
0	13149	4218.190104991236	0
0	13176	4228.780558597156	1
0	13179	4230.527152807687	0
0	13198	4236.955206547553	1
0	13201	4237.733241826364	0
0	13215	4239.625303784907	1
0	13219	4240.202498914765	2
0	13222	4242.821388700636	1
0	13228	4243.489135680026	0
0	13251	4251.190613998474	1
0	13252	4252.021418513231	0
0	13264	4259.738486981296	1
0	13269	4260.463599952292	0
0	13276	4262.623671286577	1
0	13277	4266.185102921765	0
0	13298	4272.153101610536	1
0	13299	4273.389021755612	0
0	13306	4275.566756726101	1
0	13308	4278.084909218164	0
0	13314	4279.276364080982	1
0	13316	4280.418030682097	0
0	13342	4291.955922636603	1
0	13344	4293.68155853194	2
0	13345	4294.468433445532	1
0	13351	4294.808356043897	2
0	13352	4295.233666616144	1
0	13357	4295.271799537915	0
0	13373	4297.74034818524	1
0	13374	4298.073833995069	0
0	13385	4299.562061937896	1
0	13386	4300.265687265175	0
0	13392	4300.901604134602	1
0	13394	4302.948170705236	0
0	13400	4303.993853055163	1
0	13401	4304.715202179097	0
0	13413	4308.351620585561	1
0	13414	4310.421904738803	0
0	13428	4315.770186746796	1
0	13430	4316.121595898271	0
0	13456	4320.528043656029	1
0	13457	4323.319233357181	0
0	13464	4324.849617281088	1
0	13465	4325.087263752332	0
0	13506	4335.948134467282	1
0	13508	4335.976576981509	2
0	13513	4337.826459467648	1
0	13522	4339.053862418921	0
0	13534	4345.189064652493	1
0	13536	4345.584986812823	2
0	13537	4345.888072794539	1
0	13542	4346.214000272093	0
0	13571	4356.086070794369	1
0	13573	4356.714761213306	0
0	13582	4360.094856300038	1
0	13584	4360.435091386937	2
0	13585	4361.789719805962	1
0	13592	4363.220268334007	0
0	13608	4373.360770265279	1
0	13609	4374.34303161442	0
0	13640	4383.591536489509	1
0	13642	4385.243048349716	2
0	13644	4385.515467664973	3
0	13648	4386.333866706356	4
0	13650	4387.192394439081	5
0	13651	4387.480374171134	4
0	13657	4387.705258486182	5
0	13662	4390.586343842768	6
0	13665	4392.037486838186	5
0	13671	4392.755934017812	6
0	13674	4394.285243876693	7
0	13676	4394.756044290502	8
0	13677	4395.083852735663	7
0	13682	4395.726251502373	6
0	13687	4397.013867957068	5
0	13692	4397.068474985487	4
0	13699	4400.605452760051	5
0	13700	4400.838741352667	4
0	13706	4401.377514999624	5
0	13709	4402.987205215936	4
0	13716	4403.575430099786	5
0	13718	4405.028949383696	4
0	13723	4405.541958870271	3
0	13729	4406.104425039199	2
0	13737	4406.791122302988	3
0	13743	4408.604608236858	2
0	13749	4409.309323140304	3
0	13753	4409.561139367637	4
0	13754	4409.579844487949	3
0	13759	4410.019250065116	2
0	13766	4411.530660834045	3
0	13767	4411.582100316087	2
0	13775	4413.771416157189	3
0	13778	4417.170578026317	4
0	13779	4418.932612910073	3
0	13784	4420.020307450643	2
0	13788	4421.164274763115	3
0	13790	4421.239060879732	4
0	13792	4421.73869791385	5
0	13797	4422.756533897312	4
0	13806	4423.291054625744	5
0	13807	4423.440554415675	4
0	13812	4423.719046739915	3
0	13816	4424.647147801657	4
0	13822	4429.440043243369	5
0	13824	4429.483781249976	6
0	13830	4431.275575606603	7
0	13831	4432.208209422249	6
0	13848	4440.376367886431	5
0	13854	4441.490289582873	4
0	13861	4442.09274434059	5
0	13863	4442.339076850085	6
0	13866	4444.098083373995	5
0	13872	4444.501403728051	4
0	13884	4448.705429979357	3
0	13890	4448.911685299191	4
0	13892	4449.135515703444	5
0	13895	4450.905864628087	6
0	13896	4453.078237991481	5
0	13901	4453.445013093664	4
0	13906	4454.02587220471	3
0	13911	4454.107688009805	2
0	13917	4454.598259878228	3
0	13919	4456.069115132228	4
0	13922	4457.805910327409	3
0	13929	4459.665739317414	4
0	13930	4459.810393933811	3
0	13936	4461.069493617775	4
0	13937	4461.801040985679	3
0	13943	4462.935951041363	2
0	13948	4463.86299685085	1
0	13953	4466.325523906876	0
0	13957	4468.186746066058	1
0	13961	4472.566685749008	0
0	13967	4472.617387259656	1
0	13969	4475.095473094508	0
0	14027	4492.84454951154	1
0	14029	4494.241516275525	2
0	14032	4494.493647812663	1
0	14039	4495.973300017537	2
0	14042	4499.569299427143	1
0	14050	4505.46405618054	0
0	14062	4507.489814202128	1
0	14064	4507.724389059879	2
0	14066	4509.52380764456	3
0	14068	4510.14277555706	4
0	14073	4511.354130228945	3
0	14080	4512.843064823641	4
0	14088	4519.319543464397	5
0	14089	4519.655301982478	4
0	14097	4523.108814173601	5
0	14098	4523.732284009312	4
0	14104	4526.227465623284	3
0	14110	4527.819089134356	2
0	14116	4528.470580791319	1
0	14124	4529.385995610622	2
0	14125	4529.840235268016	1
0	14133	4531.090823080803	2
0	14134	4532.462464455815	1
0	14141	4534.062256416019	0
0	14152	4537.266956002106	1
0	14154	4537.565877172944	2
0	14155	4537.937293249412	1
0	14161	4538.240168180756	2
0	14163	4539.254251126245	1
0	14171	4542.145845973229	0
0	14202	4552.486430099642	1
0	14204	4553.608225993275	2
0	14205	4553.849587566603	1
0	14211	4555.114352202959	2
0	14215	4557.712020941365	1
0	14220	4557.815088240586	0
0	14227	4560.685221862992	1
0	14229	4561.749531597877	0
0	14235	4563.347268958345	1
0	14236	4564.160183713028	0
0	14247	4564.716058038233	1
0	14252	4565.843824329662	0
0	14261	4566.673737239572	1
0	14266	4570.172869081197	0
0	14272	4571.265632731297	1
0	14273	4572.216942687142	0
0	14296	4574.865900400096	1
0	14297	4576.942717280482	0
0	14309	4581.117644101181	1
0	14311	4581.852170893973	2
0	14314	4584.455384653746	1
0	14319	4584.632972260091	0
0	14325	4585.789199096202	1
0	14331	4591.448286655353	0
0	14352	4597.674518634814	1
0	14357	4603.831286221288	0
0	14364	4605.288407668166	1
0	14366	4605.87913840491	2
0	14367	4606.932941317422	1
0	14373	4607.278582820594	2
0	14376	4607.318148865298	3
0	14380	4609.519597666878	4
0	14381	4610.32581991966	3
0	14386	4610.707648134728	2
0	14392	4612.902910299417	3
0	14394	4613.165374190501	2
0	14402	4621.196583986241	1
0	14408	4622.590686541504	0
0	14414	4622.867366775489	1
0	14416	4623.921092153431	0
0	14433	4626.315282912922	1
0	14435	4627.184560418041	2
0	14436	4627.496392046588	1
0	14443	4629.833070827131	2
0	14449	4633.466918122281	3
0	14450	4633.493443265516	2
0	14459	4636.294198501492	3
0	14460	4636.714425665772	2
0	14467	4640.007822151361	3
0	14468	4640.052670572121	2
0	14475	4640.533655316954	1
0	14480	4640.654108987696	0
0	14489	4643.066739567229	1
0	14492	4644.844923201274	0
0	14498	4645.799270186497	1
0	14504	4649.395398847913	0
0	14510	4650.667505307082	1
0	14511	4652.720924532198	0
0	14517	4653.485893263869	1
0	14519	4653.505078246993	2
0	14524	4655.754370078698	1
0	14532	4656.537460905038	2
0	14534	4656.669343219291	3
0	14538	4659.043204413256	4
0	14539	4659.456926041815	3
0	14544	4659.819339013298	2
0	14551	4661.174418365703	1
0	14557	4661.929644462331	0
0	14571	4664.462499431211	1
0	14573	4664.540365801229	2
0	14578	4667.148905687949	1
0	14586	4671.300007646916	2
0	14587	4673.636630853245	1
0	14601	4677.599163929008	2
0	14602	4680.005171984373	1
0	14607	4680.60750960765	0
0	14632	4684.811155568876	1
0	14633	4686.640422491406	0
0	14657	4695.317887827293	1
0	14661	4696.005418636557	2
0	14664	4698.397882691463	1
0	14669	4699.336610547906	0
0	14708	4706.278209553521	1
0	14710	4708.503930780577	2
0	14714	4713.15229382694	3
0	14717	4713.871620521169	2
0	14723	4716.619533068349	1
0	14728	4716.824152897842	0
0	14747	4722.265024570603	1
0	14749	4722.434279251183	2
0	14754	4725.197926638162	3
0	14756	4725.396249157539	4
0	14757	4727.376999861148	3
0	14762	4727.456293320766	2
0	14768	4727.964018523672	1
0	14773	4728.162386737565	0
0	14784	4729.665211303368	1
0	14785	4730.079593090148	0
0	14809	4739.952216663471	1
0	14811	4740.094247405044	2
0	14815	4742.131771569328	3
0	14816	4743.826956691241	2
0	14822	4744.03268348587	3
0	14823	4744.071580891389	2
0	14830	4746.207447255619	1
0	14841	4748.477572042081	2
0	14844	4751.002283131554	1
0	14849	4751.362743631753	0
0	14855	4752.229074206457	1
0	14858	4754.336958058184	0
0	14871	4759.08744730748	1
0	14874	4760.678913876876	0
0	14894	4763.116767990137	1
0	14897	4763.855766885032	0
0	14916	4771.09705552742	1
0	14917	4773.252934371713	0
0	14933	4776.260841633226	1
0	14934	4777.474968614881	0
0	14943	4780.872111267868	1
0	14944	4782.595993740917	0
0	14953	4783.370328777302	1
0	14956	4784.546608011858	0
0	14978	4793.063740250757	1
0	14980	4793.632077921199	2
0	14986	4797.35486223676	3
0	14987	4802.478953651523	2
0	14992	4803.680633637213	1
0	14998	4803.753531676947	2
0	15002	4807.502453085033	1
0	15007	4807.934532769407	0
0	15013	4808.402316287397	1
0	15015	4809.458153769043	0
0	15021	4809.593752631427	1
0	15025	4812.026665554999	0
0	15048	4817.522957293378	1
0	15049	4820.803760112765	0
0	15058	4821.58108054313	1
0	15060	4822.816831433478	2
0	15064	4826.324728628043	3
0	15068	4827.572366082409	4
0	15071	4828.210987587814	3
0	15082	4832.184646925682	2
0	15088	4836.787973530245	1
0	15095	4837.8026359864	2
0	15096	4838.871964852677	1
0	15104	4838.925733139501	2
0	15105	4839.378080355425	1
0	15110	4839.883584404803	0
0	15142	4847.403669899923	1
0	15143	4848.502139444357	0
0	15152	4850.512424323104	1
0	15154	4851.747032665293	2
0	15165	4858.117221901121	1
0	15175	4860.864019171541	0
0	15182	4862.428292870852	1
0	15184	4862.715449002886	2
0	15187	4865.81731088079	1
0	15192	4866.503301154667	0
0	15200	4866.933770568156	1
0	15201	4867.871052527587	0
0	15226	4872.716332198427	1
0	15229	4873.929211738184	0
0	15235	4874.213932230563	1
0	15237	4874.850276316891	2
0	15239	4875.610020382887	1
0	15246	4876.42771438663	2
0	15248	4876.522375816939	3
0	15254	4878.884306924375	4
0	15255	4880.390101389998	3
0	15261	4882.380994668797	2
0	15267	4883.106902842856	3
0	15269	4883.262471562336	4
0	15271	4884.250249724836	3
0	15276	4884.335505715105	2
0	15281	4884.900771470185	1
0	15288	4885.268370469898	2
0	15291	4885.937428796853	3
0	15292	4886.631570700182	2
0	15298	4886.631845664634	3
0	15303	4889.876069875128	4
0	15304	4890.255086623536	3
0	15311	4891.714465080545	2
0	15317	4891.951113587317	3
0	15321	4893.556661827808	4
0	15323	4895.044945674441	3
0	15332	4898.145563061244	2
0	15338	4899.329769318717	1
0	15343	4900.03902520657	0
0	15350	4901.170146817397	1
0	15351	4901.248911792833	0
0	15402	4919.532634730656	1
0	15410	4923.420549248568	2
0	15411	4924.037786767527	1
0	15420	4928.788776829285	0
0	15426	4929.203270921813	1
0	15429	4930.644325857453	2
0	15430	4932.709356982376	1
0	15435	4933.106930099827	0
0	15447	4937.136826409904	1
0	15452	4938.796866706933	2
0	15453	4939.792413650562	1
0	15459	4939.901336215182	2
0	15462	4941.714864382469	3
0	15463	4942.607919788224	2
0	15469	4942.970813060565	1
0	15475	4944.552088054712	0
0	15483	4947.411815904846	1
0	15486	4951.240770308038	0
0	15497	4955.070900780569	1
0	15498	4956.047103883491	0
0	15504	4956.639293831923	1
0	15506	4957.787840606812	2
0	15507	4959.164356442031	1
0	15512	4959.443931186731	0
0	15518	4959.560597506899	1
0	15521	4959.783997973088	2
0	15525	4961.476138129908	3
0	15528	4962.598955550264	4
0	15533	4963.543701227356	5
0	15535	4964.208148410167	6
0	15536	4964.853307895599	5
0	15541	4964.937437192234	4
0	15546	4965.042381253066	3
0	15552	4965.483972367183	4
0	15557	4967.226965189381	5
0	15562	4968.947953519796	6
0	15563	4968.99940560035	5
0	15570	4969.805851724486	4
0	15577	4970.621773789253	3
0	15583	4973.656390819244	2
0	15589	4973.815544663787	3
0	15592	4975.015655547699	4
0	15593	4975.997374462706	3
0	15598	4977.330580208999	2
0	15605	4983.346507819695	1
0	15612	4990.194753659169	2
0	15615	4991.11459947078	1
0	15622	4993.631193923196	0
0	15628	4994.955148914884	1
0	15633	5001.542611796463	2
0	15636	5003.105556684015	1
0	15642	5005.232196286045	0
0	15707	5028.113355985181	1
0	15709	5028.53007903268	2
0	15710	5029.664607108637	1
0	15717	5034.718913511598	2
0	15721	5037.488027797795	3
0	15723	5037.859170025484	4
0	15725	5038.715706597267	5
0	15729	5040.734687748276	6
0	15731	5041.062337722351	7
0	15733	5041.589916030254	8
0	15735	5042.163926850088	9
0	15736	5042.356523791056	8
0	15742	5042.671992682891	9
0	15751	5045.835389944935	10
0	15752	5048.478094996162	9
0	15757	5048.8882373804	8
0	15764	5050.560798742559	9
0	15766	5051.025018684867	8
0	15773	5051.454411720163	9
0	15774	5051.622906591123	8
0	15782	5053.367489180397	9
0	15784	5056.190599589363	8
0	15790	5057.717428968491	9
0	15793	5060.685967772966	10
0	15796	5061.455036600636	9
0	15802	5062.456669407351	10
0	15804	5063.908234821458	9
0	15810	5068.077442086381	8
0	15815	5068.212923015266	7
0	15821	5068.90540049656	6
0	15828	5070.129023487258	5
0	15834	5073.220658993118	4
0	15840	5074.144133113325	3
0	15846	5074.834326146309	2
0	15852	5076.065667760207	3
0	15853	5076.532770398381	2
0	15864	5078.816367344742	1
0	15869	5081.389104092348	0
0	15883	5083.740670799177	1
0	15885	5084.820292244221	0
0	15898	5087.315469082383	1
0	15899	5087.616984430379	0
0	15925	5093.271646031964	1
0	15928	5095.592606914624	0
0	15937	5100.395976517919	1
0	15939	5101.435827726259	2
0	15941	5101.893559254885	3
0	15943	5102.203648126065	4
0	15947	5109.994754946539	5
0	15948	5110.727311724849	4
0	15956	5112.780957183454	5
0	15960	5115.665623463081	6
0	15964	5116.338945037988	7
0	15966	5116.753819944557	8
0	15967	5117.559323705226	7
0	15972	5117.884494132732	6
0	15977	5118.576673731367	5
0	15983	5118.634369370015	6
0	15985	5119.277682332275	5
0	15992	5121.208789918107	6
0	15996	5123.952052594257	5
0	16001	5124.566140669806	4
0	16008	5124.93569589205	5
0	16010	5125.305796483714	6
0	16013	5125.805637800014	5
0	16019	5126.071155148617	6
0	16020	5126.197615397381	5
0	16025	5126.956383534062	4
0	16038	5129.499208648326	3
0	16043	5130.67410002302	2
0	16051	5131.058962708018	3
0	16053	5131.262114359095	4
0	16054	5133.991210069842	3
0	16059	5134.419742788035	2
0	16064	5134.884600893326	1
0	16069	5135.207251969057	0
0	16080	5135.275392997077	1
0	16086	5141.115100373288	0
0	16101	5142.216510956831	1
0	16103	5142.37445843508	2
0	16107	5144.353486251636	3
0	16111	5144.941401222332	4
0	16113	5145.491380736851	5
0	16114	5145.984928620369	4
0	16120	5146.892697760854	5
0	16124	5147.919236638859	6
0	16127	5149.016028121504	5
0	16133	5150.880860871811	4
0	16138	5151.526176489761	3
0	16143	5152.215533421311	2
0	16148	5154.273108812539	1
0	16154	5155.348630728869	2
0	16156	5156.410250026019	3
0	16157	5160.15846210482	2
0	16166	5160.842482265313	3
0	16167	5161.576273512847	2
0	16174	5162.213995341099	1
0	16187	5168.049096582238	2
0	16190	5171.538719891755	1
0	16195	5173.993924627341	0
0	16206	5174.322884400283	1
0	16207	5174.846823860354	0
0	16215	5178.196863822754	1
0	16218	5181.248777076871	0
0	16257	5188.986392047132	1
0	16260	5189.741224162614	0
0	16266	5190.396728128984	1
0	16268	5191.761306710351	2
0	16272	5195.722476235401	3
0	16273	5195.948869748148	2
0	16279	5196.700705266736	1
0	16285	5196.97528580668	2
0	16286	5197.109875407184	1
0	16292	5197.438397461586	2
0	16293	5197.834939831466	1
0	16301	5200.248620085971	0
0	16308	5204.122200333635	1
0	16313	5206.355037261087	0
0	16320	5207.779283900991	1
0	16321	5210.671389835699	0
0	16338	5218.3835319585	1
0	16341	5220.130311169935	0
0	16358	5224.609779491343	1
0	16362	5228.074323913149	2
0	16366	5231.085197404706	3
0	16367	5237.102196664391	2
0	16374	5237.865272009142	3
0	16376	5238.463006060117	4
0	16381	5244.686332791544	3
0	16389	5246.034574605808	4
0	16392	5248.088524807181	5
0	16393	5249.318393167818	4
0	16402	5250.991114504272	3
0	16407	5251.776093588559	2
0	16417	5254.896699613617	1
0	16423	5257.482196514208	0
0	16447	5266.030735367751	1
0	16452	5269.000635287705	0
0	16465	5269.951822665098	1
0	16466	5270.03169474179	0
0	16484	5277.535938532411	1
0	16486	5278.314986069456	2
0	16488	5280.570439708638	3
0	16491	5280.72193961113	2
0	16497	5283.53185778803	1
0	16502	5284.457949185469	0
0	16514	5285.815479952009	1
0	16516	5286.760786424451	2
0	16521	5291.146001418991	1
0	16526	5291.195213973323	0
0	16533	5291.570148472123	1
0	16536	5296.793743261924	0
0	16548	5302.494728777941	1
0	16549	5303.172161795555	0
0	16571	5311.538826305262	1
0	16573	5312.011216915718	2
0	16577	5312.292238470758	3
0	16584	5316.8542051629	2
0	16591	5319.669657066857	3
0	16592	5320.255987492229	2
0	16599	5320.818641757622	1
0	16604	5321.352191763273	0
0	16614	5323.806865669723	1
0	16618	5324.619294375164	0
0	16624	5325.63870952191	1
0	16628	5326.287575409805	2
0	16629	5326.542439459018	1
0	16636	5328.337709379081	2
0	16637	5330.109464311956	1
0	16646	5331.543539959837	2
0	16648	5331.840990974117	3
0	16649	5332.555687491242	2
0	16657	5334.339635354676	3
0	16661	5336.681211183283	4
0	16662	5338.316390668512	3
0	16668	5339.760531153463	4
0	16670	5340.631894704638	3
0	16676	5342.369334975667	2
0	16681	5342.510855313361	1
0	16688	5343.544611670075	0
0	16721	5350.058560616391	1
0	16722	5353.081373918869	0
0	16730	5353.975671705699	1
0	16732	5354.521713660394	0
0	16738	5354.576249361313	1
0	16740	5355.39422928041	2
0	16741	5355.554020002948	1
0	16750	5357.089843785529	2
0	16752	5365.57658302725	1
0	16760	5366.757172490525	2
0	16761	5367.771351945723	1
0	16768	5370.611761738957	0
0	16781	5376.227245082679	1
0	16783	5376.779257130397	2
0	16784	5378.006061934499	1
0	16789	5379.027923174754	0
0	16797	5380.537193759	1
0	16800	5382.104989301423	0
0	16819	5384.926511473147	1
0	16820	5385.417187626998	0
0	16833	5388.202741707529	1
0	16834	5388.959408617152	0
0	16846	5395.736362991177	1
0	16847	5397.748427415356	0
0	16859	5400.39354817124	1
0	16860	5401.246788278784	0
0	16885	5407.959146047621	1
0	16886	5409.190983851981	0
0	16893	5412.351239484216	1
0	16897	5412.720808922175	2
0	16898	5414.138296417708	1
0	16903	5414.554803235563	0
0	16916	5416.130702831852	1
0	16919	5417.081766010583	0
0	16925	5417.263122234309	1
0	16926	5417.571123472964	0
0	16932	5418.14255187174	1
0	16933	5419.448409099207	0
0	16941	5420.260350756817	1
0	16944	5421.823762042124	0
0	16976	5431.3542226138	1
0	16979	5432.726541204532	0
0	16986	5435.925342162089	1
0	16988	5436.307571878704	2
0	16989	5438.953889047803	1
0	16996	5439.878255241017	2
0	16998	5439.947195173193	3
0	17000	5441.709537298311	4
0	17005	5445.967780202442	3
0	17012	5446.887249430664	4
0	17013	5449.010154896459	3
0	17019	5449.536400462285	4
0	17023	5450.778646812243	5
0	17027	5453.669355049562	4
0	17034	5454.001791285021	5
0	17036	5454.117773389168	6
0	17039	5455.415428150423	5
0	17045	5455.685184355968	6
0	17049	5459.169082635917	7
0	17053	5462.93032535615	6
0	17061	5465.264750870457	7
0	17065	5472.244790266616	6
0	17070	5472.383110280823	5
0	17076	5472.934181411335	4
0	17083	5474.409385670706	5
0	17085	5476.394046049322	4
0	17092	5479.117726968242	3
0	17099	5480.202132346868	4
0	17104	5484.968745703914	5
0	17105	5485.669262827416	4
0	17113	5488.815108827089	3
0	17118	5491.092314710767	2
0	17124	5491.292312672046	3
0	17125	5492.928580210275	2
0	17131	5493.022457392745	1
0	17137	5493.613774478569	2
0	17140	5494.669924235289	1
0	17145	5497.000202552167	0
0	17190	5508.415042846747	1
0	17192	5509.932622891664	0
0	17209	5513.082845896283	1
0	17212	5516.35439448251	0
0	17226	5519.94940630581	1
0	17228	5520.801728340173	2
0	17232	5522.524125637281	3
0	17235	5524.621432812404	4
0	17237	5526.590089761457	5
0	17239	5527.638350842443	6
0	17241	5527.964112234002	7
0	17242	5528.164372409089	6
0	17249	5528.629053326123	7
0	17253	5530.421106739279	8
0	17254	5530.809591434434	7
0	17261	5531.783159517775	6
0	17269	5534.917091456004	7
0	17271	5535.413648053883	8
0	17274	5536.341906264095	9
0	17276	5537.741650498809	10
0	17277	5537.988497251565	9
0	17285	5541.249412630198	8
0	17292	5541.845341787381	7
0	17297	5542.227286662725	6
0	17302	5542.23284038839	5
0	17307	5543.464836550307	4
0	17313	5544.485030021469	5
0	17317	5546.319651725059	6
0	17323	5548.514105486466	7
0	17324	5548.599982166897	6
0	17330	5548.945507148566	7
0	17333	5550.33989080192	8
0	17334	5551.034787785972	7
0	17341	5551.216716175202	8
0	17344	5552.415909118649	9
0	17345	5552.431026641568	8
0	17350	5552.638398587377	7
0	17355	5553.388397737325	6
0	17360	5554.214357418483	5
0	17369	5555.834628874631	6
0	17371	5558.77038936132	7
0	17373	5559.108790332503	8
0	17376	5561.372282899268	9
0	17378	5565.5596171811	10
0	17380	5565.670799680662	11
0	17381	5566.104450332403	10
0	17386	5566.21547305954	9
0	17392	5566.615062713073	10
0	17394	5568.716070022044	9
0	17401	5569.853056512868	8
0	17406	5570.681782649644	7
0	17413	5572.978850229577	6
0	17419	5573.363561398997	5
0	17424	5573.764937133926	4
0	17429	5574.21084518773	3
0	17434	5575.100239106734	2
0	17442	5576.953233496064	1
0	17448	5578.638675306681	2
0	17449	5579.65059173743	1
0	17453	5579.819657648858	2
0	17455	5581.284632595758	3
0	17459	5582.988668952996	2
0	17464	5584.322908958393	1
0	17475	5588.328388041537	2
0	17478	5592.410735940042	1
0	17483	5592.519116984755	0
0	17494	5594.535863705479	1
0	17499	5595.718031983539	2
0	17501	5595.802139788294	3
0	17502	5596.274224009623	2
0	17508	5596.863378616714	3
0	17511	5599.005957715983	4
0	17513	5599.139575581579	5
0	17514	5599.423057797701	4
0	17519	5599.494798401102	3
0	17526	5599.748591707459	2
0	17531	5599.97867077482	1
0	17539	5603.682594113443	0
0	17575	5607.956550786746	1
0	17578	5608.742256519229	2
0	17580	5608.906318347125	3
0	17582	5611.216808164489	4
0	17584	5612.615709795368	3
0	17589	5613.586001076119	2
0	17595	5614.091678214039	3
0	17596	5614.098225807919	2
0	17606	5618.822980659396	3
0	17607	5619.454464006149	2
0	17614	5619.808916054584	3
0	17616	5619.824890199254	4
0	17617	5619.923812736973	3
0	17623	5620.791935720348	2
0	17628	5621.194207428971	1
0	17635	5621.751256931971	2
0	17641	5625.561328956759	3
0	17645	5626.472179374938	4
0	17646	5627.281649400048	3
0	17657	5632.134330902066	4
0	17658	5632.201176522959	3
0	17664	5633.063040298258	2
0	17672	5634.438094958222	1
0	17677	5634.446408863393	0
0	17699	5641.666929380837	1
0	17702	5643.824208458377	0
0	17709	5645.435164666129	1
0	17711	5645.90433772698	2
0	17712	5646.046784753443	1
0	17718	5646.207587897318	2
0	17721	5646.527057372378	1
0	17726	5647.581042801389	0
0	17735	5648.252779819332	1
0	17738	5650.358299514712	2
0	17739	5650.99971346736	1
0	17744	5651.364782362308	0
0	17773	5659.652216407544	1
0	17775	5660.578969539773	2
0	17776	5661.6724074637	1
0	17783	5662.932982828407	2
0	17784	5664.082396232426	1
0	17791	5665.436192168498	0
0	17820	5674.742113676716	1
0	17822	5675.204750429463	2
0	17824	5677.415682691811	3
0	17828	5682.528193099777	4
0	17830	5684.795454412768	5
0	17831	5685.541995535606	4
0	17837	5687.741817917663	3
0	17842	5688.160192266924	2
0	17853	5692.098301441884	1
0	17858	5692.813779263216	0
0	17885	5697.387329475387	1
0	17886	5697.452425681035	0
0	17900	5700.048199057969	1
0	17904	5701.452427028144	0
0	17923	5706.192853782581	1
0	17929	5709.693819310974	2
0	17931	5711.902145224994	3
0	17933	5712.312781922462	4
0	17934	5714.320209012346	3
0	17941	5715.758454689832	4
0	17942	5716.409411359371	3
0	17948	5717.762178463793	2
0	17954	5718.147239306652	1
0	17960	5718.254594126328	2
0	17961	5720.409145580824	1
0	17970	5722.257836050519	2
0	17973	5723.22535238345	1
0	17979	5723.783251894851	2
0	17982	5725.538487449474	1
[...]
5	87742	28090.918856636347	3.869437064163
5	87750	28092.566842861413	4.236538334001
5	87755	28093.032752493187	3.980912179008
5	87781	28097.059379861002	2.753667721841
5	87788	28097.368726433773	1.770704285484
5	87793	28099.045461386813	1.719593343231
5	87821	28111.88897953321	5.65557497246
5	87840	28117.781498350005	5.177091760686
5	87860	28126.568212490617	12.237986801984
5	87865	28127.056400730061	11.755247690216
5	87873	28128.916911181103	7.998941438304
5	87878	28129.022475477946	5.567500039542
5	87883	28129.429400532962	1.600983550594
5	87903	28131.156759667328	0.400448027391
5	87908	28131.238878790515	0.429580917651
5	87930	28137.69770390118	1.515700766887
5	87940	28141.042584907395	4.400578606399
5	87963	28156.209571167507	16.635155532802
5	87971	28158.56285840981	15.90227689083
5	87980	28160.123231884534	14.87680217408
5	87985	28160.689839262606	14.454276797165
5	87992	28161.136266502551	12.196707917091
5	87997	28162.361265120596	12.438387480961
5	88002	28162.854789053936	9.079504898962
5	88015	28165.497858825812	7.543148590081
5	88022	28166.121183233379	6.54600594289
5	88028	28166.464564729177	5.462558233344
5	88034	28167.435443774532	3.236653444552
5	88040	28169.395172007637	4.455443559198
5	88045	28169.479301287608	3.625981121303
5	88076	28178.383788033414	6.72586588984
5	88093	28183.897063562009	8.219957828946
5	88098	28184.9306805878	9.074897801816
5	88105	28186.071660886773	8.881783342517
5	88113	28187.258805325339	6.492279248656
5	88118	28188.617428475906	6.544097333067
5	88128	28192.805185470885	10.53828068812
5	88138	28196.911196567315	11.236053717721
5	88144	28199.5104229316	6.09481252196
5	88163	28207.057621893531	6.796672034212
5	88170	28209.201050598916	8.395024842809
5	88179	28210.83259650328	6.044639512863
5	88196	28222.896039001522	12.565469921217
5	88202	28225.15409275535	14.134863012543
5	88209	28225.959438946656	11.276230260532
5	88218	28227.666004208904	9.225774028676
5	88224	28228.438968482466	9.669610774716
5	88229	28229.046422097302	2.140822325308
5	88271	28250.718411592056	6.527270286863
5	88295	28257.270729209023	5.082038751968
5	88333	28272.642001118109	5.006476440946
5	88344	28274.034384543476	4.185152010284
5	88349	28274.46966044384	1.10280472183
5	88356	28276.820977871659	3.280477423253
5	88400	28292.741579096611	4.062151610775
5	88413	28293.943884498494	0.223571932177
5	88428	28297.565905345468	3.418045310415
5	88476	28317.070952903926	1.777151423034
5	88493	28327.368612393477	11.560105578502
5	88498	28328.564241107577	12.656165927996
5	88510	28334.840142523384	17.581062389976
5	88518	28335.702283921475	13.376474060783
5	88526	28336.318778824735	13.650769214702
5	88536	28339.013541444095	14.813717269239
5	88547	28342.627257535105	6.469219878147
5	88552	28342.714215047129	5.14641937278
5	88561	28343.970722927956	5.837354708272
5	88576	28352.230755687538	8.020441892354
5	88582	28353.38048235869	2.59088628535
5	88598	28360.511497604875	5.445352408792
5	88616	28371.114026524109	5.000607762774
5	88637	28380.662220496332	8.250259238451
5	88644	28383.781223790075	7.735081997958
5	88650	28387.265837247956	10.141722840188
5	88657	28387.755483926526	9.341799004751
5	88664	28388.785863263373	1.328217262375
5	88669	28388.883454882768	0.879072606567
5	88684	28393.679967657143	0.947937038494
5	88700	28397.584294169992	1.225531887946
5	88722	28404.650396304127	6.027298462185
5	88729	28406.597774719664	3.268422237335
5	88743	28410.488703591352	6.715391948727
5	88754	28415.487753444236	8.997972739935
5	88760	28416.173064083043	8.515891395701
5	88766	28416.653257322298	8.698645604101
5	88777	28420.644560254384	11.693291611416
5	88782	28423.552054458042	11.538922751343
5	88789	28426.697029961976	11.694078894806
5	88795	28428.506939440407	8.482446791342
5	88800	28428.956903906552	8.59159862083
5	88824	28441.790604419223	9.02588113174
5	88829	28441.923079700552	3.845940798297
5	88844	28454.726272665059	15.161107189754
5	88854	28458.498749361514	13.532534667165
5	88859	28460.308104039125	9.215336047187
5	88864	28460.588376399398	6.63179518345
5	88869	28461.50782898403	5.418229208536
5	88902	28476.118440074284	1.936847437351
5	88907	28476.213550858175	1.740477462232
5	88925	28482.783453145797	5.305645813939
5	88932	28484.311351117138	3.816603889724
5	88942	28488.900802382613	8.321596300236
5	88947	28489.171104012639	6.287304169702
5	88958	28494.210944682363	9.45897391678
5	88967	28495.689329420454	5.629553633693
5	89011	28520.939131334813	10.040239616822
5	89035	28527.8796912347	4.964582524006
5	89040	28528.596934603383	4.509035212078
5	89045	28528.942987753426	4.758012958811
5	89056	28531.05146724796	6.465098443553
5	89064	28532.792255356447	7.936300667705
5	89076	28535.700562551717	5.868924730167
5	89084	28537.252769231395	4.814149563579
5	89096	28540.573452865907	6.973542293427
5	89104	28543.845039306244	9.840230772516
5	89110	28547.31014964005	11.512503990246
5	89115	28547.595661548636	8.182789048875
5	89122	28548.258786946528	4.868609276196
5	89127	28549.562487721317	1.602555541538
5	89145	28554.891427916742	4.748453092475
5	89154	28559.058911815298	4.93662471956
5	89162	28563.983482020482	7.15217835677
5	89195	28572.276898683813	3.181421100344
5	89205	28576.867202133517	6.088930640707
5	89224	28585.942130336571	5.47177078491
5	89229	28585.977659350558	1.493178183279
5	89264	28600.296693987166	0.919890410234
5	89269	28600.583173488457	0.429047943561
5	89290	28609.29028986905	4.263396561832
5	89296	28609.802074982861	3.776021221116
5	89304	28610.997759558134	4.698895954877
5	89309	28611.164840269095	0.305343079257
5	89342	28624.938882912775	6.545525010828
5	89348	28625.556649328489	5.055832160531
5	89354	28626.156468073125	1.236787222774
5	89396	28634.123015518714	5.785744933804
5	89405	28635.136289478676	5.869517607902
5	89412	28635.50854324741	3.362479759426
5	89419	28637.219900942078	5.068976397044
5	89428	28639.607848157563	4.876500650806
5	89433	28640.128119445771	4.707026972617
5	89440	28641.368543102853	4.159686055152
5	89445	28641.493166826652	3.558472313738
5	89483	28659.823664829146	11.076422382649
5	89489	28663.899621658842	13.812638565394
5	89494	28665.692091443324	14.371071563232
5	89499	28666.046036913293	14.324408234375
5	89516	28672.926200854648	2.775492245173
5	89541	28681.671630587034	3.235573421663
5	89550	28685.194009801009	4.098027931068
5	89570	28691.48907350727	4.044474850965
5	89594	28698.660606276088	3.001977675227
5	89600	28698.908701287041	1.636648624565
5	89612	28705.970992333079	7.772280040176
5	89619	28710.758747889559	4.922847784602
5	89635	28713.03225360822	0.765428904101
5	89677	28729.577660818598	3.852847646248
5	89683	28732.316523515459	4.15446145717
5	89697	28739.865049758205	4.449105645036
5	89718	28748.776873391195	1.958054653324
5	89749	28757.815919682417	7.370332921594
5	89757	28759.518117615973	4.719327786487
5	89763	28760.175421277437	2.478730100528
5	89769	28761.506288187331	2.991099284408
5	89803	28770.337005549246	2.994939023655
5	89816	28780.795118992481	12.089781063689
5	89826	28785.64884151334	5.441867015444
5	89834	28787.938110430701	5.910346942686
5	89842	28790.180938307352	3.991591184602
5	89888	28800.260591334909	4.838579710813
5	89894	28800.986717207035	3.763707482515
5	89900	28802.047683620948	4.097644851747
5	89905	28802.470338155836	3.970824124505
5	89913	28803.427581127323	3.854514039915
5	89920	28804.568200167041	1.664592939856
5	89958	28820.145710733332	11.251613540127
5	89968	28822.784343263034	11.849397970139
5	89974	28823.291770437504	10.26035720711
5	89979	28823.392548459175	5.691629767395
5	89999	28825.302211552973	1.203399793315
5	90005	28826.645689553392	1.489710466225
5	90038	28843.500940173674	5.250871633068
5	90050	28850.817893552959	10.011416553478
5	90056	28853.537544283231	2.891225820395
5	90073	28859.554980393784	4.642386227539
5	90085	28862.185680737114	6.028343191337
5	90090	28862.25694620844	0.139882604623
5	90110	28874.207227940908	8.95985192917
5	90119	28875.867086700091	9.982438362326
5	90124	28875.976000212194	6.551942903933
5	90131	28877.443864336581	3.18760898816
5	90150	28882.652908551295	0.462478188848
5	90173	28894.769540269576	4.06821879999
5	90179	28896.04939372796	3.630663764179
5	90184	28896.131409594121	3.626356104588
5	90212	28905.359296740282	5.811499595119
5	90219	28906.198218746937	5.441148628628
5	90228	28907.800095402165	2.946044128174
5	90237	28908.640590464822	1.963514209075
5	90271	28920.262105664184	5.37612344318
5	90276	28920.358402975536	3.17707048119
5	90293	28926.229196637067	2.654924756729
5	90302	28927.584551332419	1.658453993134
5	90308	28928.524857620857	2.271513893827
5	90323	28933.669202270965	4.841185989487
5	90329	28937.196896548838	6.740761925654
5	90345	28941.7053991266	0.634708064728
5	90363	28946.475931885537	3.682450216001
5	90382	28953.728953690106	6.346981371617
5	90388	28955.240775649583	7.183256494425
5	90404	28960.716164729004	4.783100807927
5	90413	28963.188466806361	6.515087380445
5	90444	28980.138315032679	10.595196930168
5	90449	28980.354994166717	10.634293530148
5	90454	28980.920787374293	7.057154530698
5	90475	28988.489122421446	7.340605533356
5	90483	28989.932103606853	6.106844595357
5	90493	28990.773792607484	6.204753170369
5	90500	28993.22807379854	5.822205598806
5	90505	28994.21055364061	4.125324683383
5	90512	28994.904941153879	4.475363641658
5	90567	29016.663477245398	5.932350753223
5	90573	29017.898666569917	5.606632427639
5	90614	29041.498140073963	1.438713837131
5	90654	29062.505620752474	4.16644138945
5	90660	29062.83470136713	2.691069428168
5	90687	29070.992781597723	5.776606350341
5	90692	29071.27221326216	3.783033734056
5	90699	29072.887377804671	4.550653944338
5	90707	29075.764284362613	4.877092858148
5	90717	29078.119711286789	6.75399776641
5	90724	29078.838982061151	2.403636616704
5	90729	29078.863925209428	1.160016855969
5	90743	29086.153225880061	7.712302747975
5	90754	29091.224509620553	11.942252998965
5	90765	29093.812369928167	10.225777074446
5	90771	29094.101553665683	10.138529018459
5	90779	29097.655373441804	12.131993220193
5	90788	29100.317309789785	9.54436074248
5	90806	29105.504134271747	13.937099280529
5	90812	29106.003956436282	12.207725656028
5	90830	29115.185406068167	17.66237157598
5	90835	29115.442302258307	17.204746772557
5	90847	29118.308631604048	17.947043533038
5	90855	29123.127222906603	22.155306156402
5	90861	29125.085753123945	22.121305677601
5	90876	29129.10074339884	25.640978925833
5	90881	29130.727470415262	23.142325022222
5	90886	29131.85716717971	23.148838160821
5	90896	29135.562853575229	26.562103007553
5	90902	29136.347436504214	24.94399613355
5	90907	29136.882356130552	23.824180799439
5	90914	29140.024471952784	23.974830191119
5	90921	29141.505327150232	24.293430284362
5	90934	29148.314977949425	22.861632844834
5	90939	29150.335387277327	22.818503967411
5	90946	29152.991276366922	25.416964835463
5	90952	29154.073995015868	19.224780173461
5	90958	29155.771235204803	14.593040680336
5	90964	29156.252959052505	10.084006222006
5	90969	29157.349724396955	6.808376159857
5	91000	29166.50046191235	5.925481892295
5	91013	29169.927239644912	5.741057457842
5	91018	29170.438108024925	2.521812505505
5	91071	29185.847455733867	9.612036254463
5	91078	29189.212422444087	8.535218011269
5	91092	29195.286730502852	12.494117682184
5	91097	29196.357069953167	6.278100742095
5	91104	29197.81004477843	6.793717592073
5	91116	29198.694193575056	0.350978451328
5	91139	29206.031970278542	2.399068941083
5	91159	29217.318345003507	8.079531883148
5	91165	29219.99925279281	7.761017070469
5	91170	29220.376932851388	5.999798556736
5	91187	29224.327582665832	3.674744417721
5	91193	29225.01514396446	2.673078684699
5	91212	29232.114308187754	1.416206063038
5	91246	29242.334738002124	5.098086486875
5	91251	29244.445432302177	2.691584587185
5	91256	29246.41823358565	4.659333802154
5	91286	29254.615228953112	2.62286696934
5	91315	29267.640062317637	12.913480956591
5	91327	29276.706725234151	17.007564679552
5	91335	29278.485380975759	16.358366738663
5	91343	29280.580857783037	10.861991198525
5	91349	29282.511524155321	8.187287893078
5	91357	29284.423386652385	6.873809307626
5	91362	29285.127742129528	5.729429353493
5	91367	29285.246558735745	2.337565148188
5	91427	29302.444507765468	1.126750102303
5	91448	29311.382154691595	6.780383288636
5	91465	29316.084146093414	7.153120235553
5	91473	29319.083179530694	7.227506700906
5	91478	29319.148219640874	3.832139037162
5	91483	29320.059768615474	4.102498614183
5	91493	29322.912125139747	4.60436176095
5	91501	29327.855932703217	7.17286629154
5	91506	29328.489935260903	3.280064028715
5	91549	29346.907253630469	4.251147384226
5	91554	29347.199638752512	3.09899291398
5	91560	29347.800847120126	1.224490953904
5	91569	29349.805819206872	3.218490765421
5	91577	29352.023426361594	3.68793927654
5	91607	29363.208461642158	3.247836859871
5	91621	29364.70982826031	1.404229208987
5	91627	29366.003148083229	2.586390430407
5	91641	29370.412756219161	1.816170249186
5	91668	29386.949825307562	15.310626397111
5	91673	29387.245443737803	3.789220559912
5	91708	29397.793519999622	5.978335003022
5	91717	29399.011855395043	6.921784841266
5	91722	29401.080548020115	8.677676125896
5	91730	29404.317146258162	7.327172029695
5	91740	29410.818527925898	12.949396253474
5	91745	29410.875372805829	12.745648569142
5	91750	29410.892089186769	5.078508159793
5	91787	29431.103601924852	13.62229113451
5	91792	29431.49627731496	11.92435734487
5	91799	29435.265360541846	11.380015891132
5	91805	29436.2245887612	7.869908576336
5	91812	29437.270786545512	7.726531077289
5	91843	29451.646075446936	8.279647527401
5	91851	29452.410031644131	0.981740858515
5	91862	29455.45749531446	3.28900388012
5	91870	29458.66855415277	5.794160242902
5	91881	29462.558502076199	4.486490700644
5	91889	29463.625987813485	3.25833404569
5	91896	29465.680811890236	2.115502635289
5	91927	29478.518950527078	9.303126679925
5	91935	29479.781784385621	9.236484093063
5	91947	29482.007733224156	11.390308291919
5	91952	29482.196582120292	3.847916837466
5	91957	29482.703393693758	3.507895246129
5	91985	29491.93128323127	5.375560362825
5	91991	29492.127907192653	5.379524994631
5	91996	29492.898269163623	5.764185158431
5	92001	29494.027403844592	2.434477372817
5	92028	29497.877120719126	2.250670937313
5	92041	29499.748847404252	2.472955934031
5	92048	29500.550064482929	1.535502421264
5	92060	29503.173669873769	3.050416810293
5	92065	29503.393966775173	2.363576122663
5	92070	29503.942730864585	1.321700241014
5	92102	29513.355193529917	7.5394182607
5	92107	29513.379145990635	3.963395625354
5	92120	29518.376486289973	5.842268183551
5	92133	29522.015843181421	7.414818236318
5	92138	29522.126039404336	7.46129066871
5	92145	29523.633203248402	3.266242384572
5	92150	29524.582656640483	2.811499192441
5	92202	29541.759771956967	10.091390752214
5	92208	29543.80746860883	11.858430873818
5	92213	29544.102170153406	10.090187678372
5	92218	29544.519943122831	8.508170119435
5	92225	29545.389611702868	8.775799059547
5	92237	29548.304523136903	9.45015276012
5	92244	29549.638244309253	5.061027180823
5	92260	29558.610770152869	11.147160260598
5	92267	29559.31592640692	10.290026992307
5	92272	29560.967565434313	4.375813519468
5	92283	29565.894342624961	6.986901956521
5	92290	29568.525282089446	5.229870036711
5	92298	29569.913749469474	5.61935075192
5	92314	29582.22028081134	12.366572378187
5	92320	29584.568704090341	12.286156056793
5	92341	29597.830262900158	8.136182657634
5	92348	29598.647590795034	7.809889437707
5	92355	29598.740936014697	3.990774452615
5	92360	29599.981126145448	1.314355525175
5	92412	29612.765179337964	5.431437540249
5	92419	29614.137729461135	5.871040770736
5	92424	29614.249911235506	5.239123762922
5	92433	29618.43562949465	7.898204647202
5	92440	29619.954920169478	8.884899475095
5	92452	29623.081872923688	11.748241968143
5	92457	29623.656604481915	7.00463790182
5	92464	29624.333128525909	2.313444894771
5	92472	29625.200176912251	3.001143722195
5	92477	29625.309314002635	0.758078367891
5	92507	29632.989376974428	2.297301244856
5	92514	29633.925643499095	2.875974971808
5	92520	29634.317622232501	1.538810718444
5	92531	29636.52534533117	3.124388111186
5	92542	29640.247207479783	4.437759638862
5	92554	29644.635335386998	8.650873758
5	92565	29650.619612744404	12.305361515065
5	92573	29651.736077232843	11.592969318388
5	92583	29653.306750676845	10.531272548743
5	92590	29656.613937191737	13.622209504848
5	92595	29656.881785943772	13.75336173155
5	92604	29660.053906468758	7.117302399292
5	92609	29660.348871386889	7.38246114357
5	92614	29660.501352165259	1.342553299576
5	92626	29669.819625804717	10.250628582913
5	92631	29670.049468439774	7.962967580342
5	92640	29670.879730674635	3.424969309308
5	92651	29673.802747532832	3.293663348141
5	92656	29675.044671582572	2.004627625967
5	92726	29692.77783452722	11.203840201217
5	92731	29692.866252946243	7.330129652963
5	92737	29694.522522830166	8.317630830354
5	92754	29699.74468696196	12.800673108483
5	92760	29701.544673703416	13.935641466424
5	92765	29702.924646507762	12.002351757466
5	92772	29704.908408354658	12.573619879398
5	92777	29705.028983372966	12.384079234242
5	92787	29708.490450977707	9.551671871566
5	92792	29711.236099359284	8.189094400124
5	92801	29713.528781785449	5.55261531315
5	92813	29726.148589548933	13.69134052744
5	92819	29726.23517906236	8.058225789995
5	92828	29727.54456875083	4.0970308589
5	92839	29733.829943975409	6.860320143016
5	92853	29737.716352190858	7.759575927052
5	92861	29740.700808743245	7.677247113017
5	92867	29741.490144601131	6.86836860664
5	92874	29744.472933960525	8.308312384549
5	92879	29744.623546687348	7.80365796033
5	92884	29745.650949461735	3.123456987484
5	92910	29754.850020208745	6.41028817944
5	92915	29755.316041483843	2.726165870445
5	92920	29756.145073608309	1.301374225407
5	92942	29763.163283304816	4.48211581487
5	92985	29781.651374609305	2.504579327083
5	92998	29790.907167591386	7.110771036784
5	93011	29795.423642097867	3.171360230367
5	93051	29814.992539356821	3.723106205943
5	93087	29834.686879703648	14.762285503982
5	93094	29836.817974629517	10.328469510226
5	93101	29838.691023807239	11.387976976863
5	93106	29839.999301916934	12.341530828793
5	93123	29845.135452750084	17.297249992364
5	93128	29846.490087551111	13.212231107058
5	93133	29847.116327712181	12.440518912148
5	93140	29847.623818825284	12.57218511508
5	93153	29851.693924013151	11.607397992703
5	93158	29851.855435181154	10.355901594722
5	93166	29854.653921003	12.864059406449
5	93191	29861.52207122257	14.158668751342
5	93197	29862.243045768613	13.31343713874
5	93203	29863.603014335325	8.596541569175
5	93210	29865.183496467221	8.154588249811
5	93215	29865.19148572462	6.880393560217
5	93225	29866.703916494791	7.691702832681
5	93234	29869.136705597231	9.701231516135
5	93239	29869.800804961028	3.611807936429
5	93305	29894.454271965171	12.379447408894
5	93311	29896.562870760013	10.201219434156
5	93318	29896.773708173651	9.771384898563
5	93325	29899.749645301677	10.129244394572
5	93333	29902.794464590199	12.202884699599
5	93340	29904.811722796258	13.476750259583
5	93346	29906.19597198557	9.586414848103
5	93352	29906.448117326199	4.011024521473
5	93376	29920.00331111384	12.381087558717
5	93381	29920.356787124425	5.784883353004
5	93405	29928.779326302839	8.287346098188
5	93413	29933.969563607112	12.197203005318
5	93419	29934.174717383311	6.924306327451
5	93425	29935.724724671392	7.315591730849
5	93433	29937.070581400354	3.427819028317
5	93440	29937.253046007296	0.643652951438
5	93453	29940.303655432342	1.578269890097
5	93472	29946.641942640093	5.00934726664
5	93477	29947.209527428841	4.385045311597
5	93503	29960.07879268305	10.480102739992
5	93509	29961.060643853378	9.703744892314
5	93516	29963.153502282703	8.419441053015
5	93522	29963.651910098347	8.013926804321
5	93527	29963.692993612467	7.453129880589
5	93551	29973.423361359092	8.605518244653
5	93557	29975.255748330164	7.891669055259
5	93577	29985.889293423449	17.85265307346
5	93589	29990.569207473536	12.116507076334
5	93594	29990.664207404184	12.188034878924
5	93599	29993.187203093256	13.577438021997

