version 2
run Third-n4-11-20191016-14:53:56-11984
attr configname Third-n4
attr datetime 20191016-14:53:56
attr experiment Third-n4
attr inifile omnetpp.ini
attr iterationvars ""
attr iterationvarsf ""
attr measurement ""
attr network org.omnetpp.queueing.Pizza
attr processid 11984
attr repetition 11
attr replication ""
attr resultdir results
attr runnumber 11
attr seedset 11
param **.PS.maxInventoriedPS 4
param **.U1.interArrivalTime exponential(4s)
param **.U2.interArrivalTime exponential(6s)
param **.PS.serviceTimeForInventoryU1 exponential(1.4s)
param **.PS.serviceTimeForInventoryU2 exponential(1.4s)
param **.PS.serviceTimeDirectU1 exponential(1.8s)
param **.PS.serviceTimeDirectU2 exponential(1.8s)
param **.PS.probabilityProducing 0.8
param **.CS.serviceTimeU1 exponential(2.3s)
param **.CS.serviceTimeU2 exponential(2.3s)

vector 0 Pizza.EntryQueueU1 queueLength:vector ETV
attr interpolationmode sample-hold
attr title "queue length, vector"
vector 1 Pizza.CS queueLength:vector ETV
attr interpolationmode sample-hold
attr title "queue length, vector"
vector 2 Pizza.EntryQueueU2 queueLength:vector ETV
attr interpolationmode sample-hold
attr title "queue length, vector"
vector 3 Pizza.sink lifeTime:vector ETV
attr interpolationmode none
attr title "lifetime of arrived jobs, vector"
attr unit s
vector 4 Pizza.sink lifeTimeU2:vector ETV
attr interpolationmode none
attr title "lifetime of arrived jobs, vector"
attr unit s
0	0	0	0
0	7	0.795119552695	1
0	9	1.6583795449	2
0	12	2.647125681843	1
0	22	6.821355299315	2
0	24	9.056364407368	1
0	31	14.216213171531	0
0	37	15.639857745999	1
0	39	16.517548097748	0
0	47	20.105051737807	1
0	49	20.206935410031	2
0	53	25.898430018767	3
0	54	26.80386387233	2
0	59	27.287678230934	1
0	64	27.560003080746	0
0	110	37.502425483873	1
0	111	37.573458046922	0
0	117	38.375983739429	1
0	118	38.458344121001	0
0	122	38.526553335383	1
0	124	38.550624351588	2
0	128	39.922071294115	3
0	132	41.192731569714	2
0	137	42.797574569469	1
0	143	44.307693681319	0
0	168	49.354475758984	1
0	170	51.05500702156	0
0	199	61.691696140586	1
0	201	62.067114063015	2
0	202	62.334197784537	1
0	208	62.603578787839	0
0	231	66.779980271734	1
0	235	69.739004312013	0
0	244	73.939922262322	1
0	245	74.285721850962	0
0	269	78.703703423339	1
0	271	79.642998843475	2
0	272	79.671930147439	1
0	281	82.53039712683	0
0	292	83.942882870354	1
0	295	84.326348394518	2
0	298	86.057958411411	3
0	300	86.776942021776	4
0	301	87.150990738096	3
0	306	87.326252229757	2
0	313	88.461572270153	3
0	317	89.583538934716	2
0	323	89.917642173378	3
0	324	90.417775769974	2
0	330	92.969294827473	3
0	332	93.912125683039	2
0	339	95.117313933693	3
0	346	98.995279768466	2
0	352	100.265445743927	3
0	353	100.835118202975	2
0	358	101.726507502082	1
0	364	105.628419918332	2
0	367	107.31580366706	1
0	372	109.185945307983	0
0	390	112.975918419986	1
0	392	116.596200961859	2
0	396	117.110949018112	1
0	401	117.706231549482	0
0	419	120.774861828553	1
0	420	125.956069233374	0
0	443	131.389400631645	1
0	444	131.943294346594	0
0	473	137.265050451993	1
0	477	143.095632561149	2
0	478	145.197347209548	1
0	483	145.674342703924	0
0	489	145.697950383301	1
0	490	145.800028727789	0
0	505	152.020299313966	1
0	506	154.668341093569	0
0	523	160.243166085405	1
0	527	161.08961532399	2
0	530	163.021454015936	1
0	538	166.617673250182	0
0	576	174.106360130839	1
0	577	176.006965541741	0
0	599	180.885939284212	1
0	601	182.621222255145	2
0	604	183.985534794469	1
0	609	184.113317040104	0
0	623	186.870336511639	1
0	627	189.290993968799	0
0	635	190.014784187925	1
0	639	191.027332128248	2
0	641	193.661241613458	3
0	642	194.789943202628	2
0	649	195.231375474689	3
0	650	195.26826603244	2
0	656	196.976655886351	1
0	663	197.107139908983	2
0	665	197.412498842864	1
0	671	198.333715131156	0
0	677	199.257252865971	1
0	678	201.363029540664	0
0	698	207.839809707996	1
0	699	208.084206203168	0
0	721	215.924662188225	1
0	726	217.882876173511	0
0	748	222.303146548845	1
0	754	229.020356387566	0
0	760	229.615722039187	1
0	762	230.105350981843	2
0	766	236.063087480135	1
0	774	236.7805124926	2
0	778	238.093762307557	1
0	783	238.968941746624	0
0	812	251.133236762873	1
0	814	252.071573243505	2
0	825	258.965719103676	1
0	830	259.043005355649	0
0	843	263.807711825134	1
0	844	266.888176883443	0
0	856	270.114371115468	1
0	862	271.217347976651	2
0	864	271.733231614727	3
0	865	272.659883351319	2
0	870	272.879136609122	1
0	876	273.581603468622	0
0	890	277.064351340278	1
0	891	278.685846105881	0
0	912	284.230827214675	1
0	915	286.935099287345	0
0	924	288.350715444286	1
0	930	290.334734875229	0
0	937	291.722354196452	1
0	938	292.781940737688	0
0	950	295.609343091046	1
0	953	297.827465787674	0
0	969	302.489832889081	1
0	970	302.710946522629	0
0	989	306.107650304668	1
0	996	311.059609790399	2
0	999	312.681593799239	1
0	1005	315.622380461512	0
0	1015	316.678388440574	1
0	1023	318.719868044887	0
0	1029	319.64508385869	1
0	1031	320.663438859263	2
0	1033	322.195039953932	3
0	1039	326.598374411191	2
0	1045	329.116729351511	3
0	1046	330.346955877198	2
0	1052	333.941449028245	3
0	1055	334.710830273915	4
0	1056	335.647472044687	3
0	1062	336.453279449384	2
0	1068	336.625200998121	1
0	1074	336.758708414203	2
0	1076	336.88559400599	1
0	1082	338.3619944776	0
0	1089	339.163907352485	1
0	1091	339.544850430679	0
0	1097	339.79982288695	1
0	1099	341.142122417862	0
0	1107	341.890751619847	1
0	1112	343.405435014666	0
0	1121	345.05925163207	1
0	1123	345.448223658067	2
0	1124	346.864280908938	1
0	1130	347.157454657432	2
0	1132	348.993110460927	1
0	1138	353.7360551741	0
0	1160	358.57271673389	1
0	1161	359.556094887147	0
0	1168	360.027630996437	1
0	1169	360.669423429883	0
0	1179	364.171309386205	1
0	1180	365.586750228301	0
0	1187	367.916543342203	1
0	1188	369.576185512117	0
0	1194	370.366685431458	1
0	1196	372.617183689909	0
0	1202	372.764495605524	1
0	1204	373.012898533305	2
0	1213	377.127132100273	3
0	1215	379.183368325746	4
0	1216	379.425564617399	3
0	1223	381.592845429518	2
0	1229	382.08480414071	1
0	1234	383.754594572364	0
0	1240	383.791884809413	1
0	1242	384.638304442468	2
0	1246	388.07730315768	3
0	1247	388.2318213908	2
0	1258	391.420720153121	1
0	1264	394.752323471539	2
0	1266	395.664183785741	1
0	1271	396.794186605416	0
0	1288	400.482564557587	1
0	1289	400.845203618368	0
0	1301	404.5707150619	1
0	1305	405.150730790887	2
0	1306	405.721888524843	1
0	1314	406.900333971938	2
0	1320	411.176346451526	1
0	1326	411.912847440927	2
0	1328	416.459753736174	3
0	1329	416.49178417271	2
0	1335	419.198388858154	1
0	1343	421.064568175488	0
0	1386	430.520377263333	1
0	1388	431.08231364496	2
0	1389	432.64021275635	1
0	1394	434.481347885565	0
0	1410	440.72134090291	1
0	1412	441.413894038753	2
0	1413	442.051673324174	1
0	1423	443.307150972083	2
0	1429	445.89368710047	1
0	1435	446.937501176602	2
0	1437	447.830201256509	3
0	1440	448.683899210193	4
0	1441	449.71732420231	3
0	1448	450.388189332189	4
0	1450	450.592387481106	5
0	1451	453.35040237763	4
0	1458	453.702186239099	3
0	1463	453.976532373961	2
0	1475	457.404945056398	1
0	1484	461.282151061585	0
0	1490	461.544188888294	1
0	1492	462.859693884722	2
0	1496	467.168753079202	3
0	1497	467.17916618577	2
0	1502	468.771504462605	1
0	1507	469.227908381547	0
0	1515	470.647411145808	1
0	1519	472.439817482172	2
0	1520	472.466693648639	1
0	1524	472.594495179798	2
0	1529	476.13047100133	1
0	1535	476.620298258183	2
0	1538	478.450678861958	1
0	1544	480.974311151161	2
0	1547	482.053334824727	1
0	1551	482.364578529161	2
0	1554	484.135088626946	1
0	1561	487.817186149508	0
0	1595	495.442932135069	1
0	1599	496.191858141463	2
0	1600	497.304216785204	1
0	1606	499.158684147277	0
0	1615	500.965646829754	1
0	1618	501.276748183424	0
0	1638	507.336620671286	1
0	1639	510.772583205731	0
0	1651	515.986762130677	1
0	1653	517.281110814724	0
0	1668	520.356966123386	1
0	1671	523.082831772183	0
0	1677	523.211250660456	1
0	1678	523.708692615494	0
0	1684	524.079967132194	1
0	1687	528.768864876739	0
0	1693	529.102368810713	1
0	1697	532.797577027905	2
0	1698	534.870993102539	1
0	1703	535.034835739998	0
0	1759	550.340304916262	1
0	1762	551.204608370945	0
0	1776	552.144678272216	1
0	1781	553.453388959115	2
0	1783	555.086905389765	1
0	1794	558.199636961135	2
0	1798	562.058978925462	3
0	1800	562.135717433822	4
0	1801	564.786172135488	3
0	1808	566.320530686334	2
0	1816	568.987738280881	3
0	1819	570.678912570853	2
0	1825	571.416355796281	1
0	1834	572.309240674885	0
0	1840	573.588567359979	1
0	1842	573.604264313284	2
0	1844	576.223620198104	3
0	1845	577.097828583258	2
0	1851	577.452512503261	3
0	1853	579.646370074403	4
0	1855	580.735557864909	5
0	1857	583.527378481273	6
0	1858	583.692365536248	5
0	1863	584.194480122447	4
0	1869	584.607253903716	5
0	1870	585.499935244107	4
0	1878	588.296063575792	5
0	1880	588.446224596474	6
0	1881	588.804876895415	5
0	1887	588.873761314818	6
0	1891	593.460806287465	5
0	1897	594.378473020338	4
0	1904	595.461736548305	5
0	1905	596.596172360464	4
0	1910	596.681453304955	3
0	1916	597.383962530047	4
0	1923	602.735178951803	3
0	1930	604.5164517627	4
0	1931	607.431147850574	3
0	1937	609.34856090772	2
0	1942	609.511329517552	1
0	1948	610.156504166898	0
0	1959	610.796010401614	1
0	1960	610.840039723018	0
0	1969	612.500734613159	1
0	1970	612.830965836696	0
0	1986	614.6967376529	1
0	1987	614.799069754716	0
0	2016	620.737598540021	1
0	2019	623.686053806568	0
0	2025	623.686206278088	1
0	2027	625.253292191341	0
0	2036	628.790498488434	1
0	2038	632.491168326738	2
0	2040	635.575086005633	3
0	2042	636.349049027382	4
0	2043	636.943437226945	3
0	2050	637.544180881464	4
0	2056	639.925820125506	5
0	2058	640.513356259083	6
0	2060	641.270402832736	7
0	2062	641.303664348084	8
0	2064	645.809437093523	9
0	2067	648.453703792255	8
0	2074	650.952807643523	7
0	2082	653.843022180598	6
0	2090	655.433084442053	7
0	2091	658.032706186699	6
0	2099	658.547273858187	5
0	2105	658.735586568636	6
0	2107	659.6390068467	7
0	2110	661.431360883599	8
0	2111	661.948337876066	7
0	2122	665.437304445421	6
0	2128	665.530531388294	7
0	2131	666.570605564351	8
0	2136	669.68595052328	9
0	2137	670.021956552787	8
0	2143	674.891748915097	7
0	2149	675.858576536652	6
0	2154	678.163727619196	5
0	2162	679.867797962039	6
0	2163	681.115246731769	5
0	2169	683.657326742384	6
0	2171	685.244020686211	5
0	2177	685.902292726475	6
0	2178	686.572597566025	5
0	2184	690.538697758179	4
0	2190	691.222944757306	5
0	2192	691.277373535482	6
0	2193	692.526348146231	5
0	2206	696.047490689217	6
0	2208	698.59726486909	5
0	2213	698.769974735516	4
0	2221	700.846515454405	5
0	2222	701.159570049758	4
0	2234	706.617458346293	3
0	2243	711.59072644311	2
0	2248	712.806655550597	1
0	2255	713.987390307861	0
0	2266	714.490010752383	1
0	2268	715.006452217704	2
0	2269	715.347607055951	1
0	2273	716.136885852031	2
0	2276	717.351751937688	1
0	2283	724.262723502792	0
0	2305	729.006501145252	1
0	2306	730.047416485856	0
0	2320	734.710720361794	1
0	2322	734.728399609607	2
0	2324	734.877407848745	3
0	2328	737.731602509519	4
0	2329	737.999365972143	3
0	2334	739.399041374548	2
0	2340	739.692204579963	3
0	2343	741.939177108781	2
0	2353	744.552091294217	3
0	2354	747.062237522646	2
0	2360	748.445125034322	1
0	2367	751.003773744368	2
0	2370	752.171383184647	1
0	2377	752.691289775317	2
0	2378	756.124267760543	1
0	2384	757.558978771623	0
0	2410	763.364519354199	1
0	2412	764.308848978374	2
0	2413	765.736755979454	1
0	2418	767.089051453516	0
0	2431	770.21476199676	1
0	2435	775.179156939696	2
0	2436	775.665983370704	1
0	2441	776.500211994612	0
0	2450	777.357148683959	1
0	2458	785.042292672069	0
0	2480	790.49719145668	1
0	2483	791.675134690717	0
0	2490	792.533108157434	1
0	2493	795.261104868492	0
0	2499	795.97337643087	1
0	2501	796.573467700374	0
0	2515	803.666120512206	1
0	2517	804.205396554172	2
0	2519	804.755879837465	3
0	2522	808.239421447649	2
0	2529	810.95746366048	1
0	2534	812.04524770177	0
0	2540	813.322827984991	1
0	2546	816.291340879986	0
0	2552	817.694108034152	1
0	2554	820.743982417899	0
0	2589	827.818736737836	1
0	2593	831.193933757943	2
0	2595	831.333312512257	3
0	2596	831.874263740122	2
0	2601	831.918137824211	1
0	2608	832.918700628617	2
0	2609	833.136361770863	1
0	2614	834.898712667664	0
0	2630	846.58591770261	1
0	2632	848.414065696452	2
0	2633	850.062197330233	1
0	2640	850.930535914413	2
0	2641	851.136535127182	1
0	2646	852.015491195447	0
0	2656	856.021484369208	1
0	2660	857.24715703979	0
0	2667	857.626988592039	1
0	2668	858.135077565273	0
0	2677	858.780979032792	1
0	2683	860.674862693976	2
0	2684	860.959052228296	1
0	2690	861.267008485612	2
0	2693	867.392388800924	1
0	2702	868.050141197125	2
0	2703	868.126912337241	1
0	2709	869.623909001563	0
0	2717	870.221661182473	1
0	2719	870.979665109464	2
0	2720	873.523424962441	1
0	2727	874.038301673719	2
0	2728	874.492759223005	1
0	2736	877.463378931483	2
0	2737	877.553007268173	1
0	2742	877.681175509168	0
0	2750	878.47301612147	1
0	2753	880.98134925434	0
0	2760	882.332165327437	1
0	2763	882.508394389039	0
0	2776	884.67796698056	1
0	2777	885.109760783391	0
0	2793	889.126704148558	1
0	2797	889.699216581621	2
0	2801	891.571222720682	3
0	2803	892.348465766629	2
0	2808	894.374797134872	1
0	2815	897.980232340055	2
0	2817	900.603708995537	1
0	2826	902.669024214671	2
0	2827	903.096418656978	1
0	2834	905.096329378692	0
0	2864	921.433628344083	1
0	2865	922.232674105921	0
0	2877	924.812515460711	1
0	2878	924.880537973086	0
0	2890	927.482234275208	1
0	2891	927.631046272091	0
0	2906	932.163280504583	1
0	2908	932.511406460995	2
0	2909	932.636837396163	1
0	2915	935.743137933509	0
0	2952	949.660711417502	1
0	2955	951.175850498605	0
0	2964	952.390663745741	1
0	2969	954.442777924314	2
0	2970	955.526257280118	1
0	2975	955.682781958431	0
0	2994	961.821523483772	1
0	2996	962.451991165015	2
0	2997	965.084419938909	1
0	3002	965.188209780873	0
0	3020	967.717468843159	1
0	3021	969.11308208504	0
0	3031	971.157188215134	1
0	3034	973.552715246623	0
0	3041	974.765398293909	1
0	3042	974.907490695228	0
0	3055	980.73614942085	1
0	3056	980.79836021341	0
0	3062	980.816272903864	1
0	3066	981.332880025006	2
0	3068	982.073116759394	1
0	3075	985.148243398724	0
0	3081	985.570108469898	1
0	3083	987.265071680667	0
0	3095	988.516578937203	1
0	3099	991.814908410878	2
0	3103	993.609841079581	3
0	3105	994.792830033553	4
0	3107	995.21118533994	5
0	3108	996.104003458346	4
0	3114	999.748391590472	3
0	3122	1001.658426121065	2
0	3127	1002.21842693898	1
0	3132	1002.598850518013	0
0	3139	1006.432320515688	1
0	3140	1006.521654095825	0
0	3148	1009.147678613918	1
0	3149	1010.087978410903	0
0	3167	1014.395343208937	1
0	3169	1014.685044013381	2
0	3171	1014.704531949882	3
0	3174	1021.066796631115	2
0	3181	1023.953209105798	3
0	3183	1025.543752348843	4
0	3186	1027.166332240959	3
0	3192	1028.407390280648	2
0	3197	1028.615781418033	1
0	3202	1028.793447533475	0
0	3223	1033.302103499832	1
0	3227	1036.372152439887	2
0	3228	1037.038231406138	1
0	3236	1039.148753364735	0
0	3243	1040.366963371361	1
0	3250	1045.130749003089	2
0	3253	1046.192493799118	1
0	3260	1047.893299180683	2
0	3261	1048.958654785789	1
0	3267	1049.100584679091	2
0	3272	1050.469797162469	3
0	3276	1054.209148950649	4
0	3280	1056.417949947339	5
0	3281	1057.445174868383	4
0	3287	1057.867717281364	5
0	3290	1058.982533560124	4
0	3296	1061.902633993307	3
0	3302	1063.026722806996	4
0	3303	1063.649885389177	3
0	3308	1063.822565720303	2
0	3314	1064.458233574335	1
0	3319	1064.787718455881	0
0	3325	1065.829959144371	1
0	3327	1065.837008919694	2
0	3329	1066.1290730711	3
0	3330	1066.213660245382	2
0	3340	1070.087398722593	3
0	3341	1070.723943482635	2
0	3346	1071.240983502551	1
0	3353	1073.098422941699	2
0	3356	1075.136731616399	3
0	3358	1076.708228575545	4
0	3359	1077.500580860191	3
0	3364	1079.086758577271	2
0	3370	1079.864109406889	3
0	3371	1080.157455056374	2
0	3379	1083.807961977933	1
0	3385	1086.142693653174	2
0	3387	1087.846248493639	3
0	3389	1090.514780584398	4
0	3391	1090.772901073925	5
0	3392	1090.82770382313	4
0	3397	1091.005984171096	3
0	3403	1091.971954757751	4
0	3404	1093.320768068181	3
0	3410	1093.436161859517	4
0	3415	1093.864286274829	5
0	3418	1097.141152115473	6
0	3419	1098.05655186186	5
0	3424	1099.31776484581	4
0	3434	1102.012980395676	3
0	3439	1102.429102879869	2
0	3446	1103.752525324304	1
0	3452	1104.137781262689	0
0	3462	1106.250217607523	1
0	3467	1109.602297880833	2
0	3468	1110.018894810667	1
0	3473	1111.008711074889	0
0	3492	1117.697648028601	1
0	3493	1117.830799622785	0
0	3512	1121.573567843573	1
0	3513	1121.84301362525	0
0	3525	1130.406999166368	1
0	3526	1130.946230155039	0
0	3535	1132.820024948673	1
0	3537	1134.287462607415	0
0	3553	1135.797951401057	1
0	3563	1138.231173675095	2
0	3567	1141.897235588616	1
0	3573	1143.15849483872	0
0	3597	1157.07844718157	1
0	3599	1157.7021092805	0
0	3605	1157.78634216015	1
0	3607	1158.458982460144	2
0	3609	1159.500338655167	3
0	3611	1161.54093347356	2
0	3616	1162.832255229103	1
0	3625	1165.192601169292	2
0	3626	1165.20098714834	1
0	3632	1165.960219445855	2
0	3634	1167.450823954763	3
0	3636	1168.523417844326	4
0	3638	1169.263288606838	5
0	3641	1173.426729216347	4
0	3650	1174.370642807299	5
0	3651	1174.714991458902	4
0	3656	1175.579517927247	3
0	3662	1175.754218830285	4
0	3663	1176.892426589548	3
0	3669	1177.334551922573	2
0	3676	1180.226041963264	3
0	3683	1181.363216566625	4
0	3684	1181.395314458488	3
0	3689	1182.181139054841	2
0	3699	1184.445237354353	3
0	3700	1186.37450664643	2
0	3706	1187.134272525963	1
0	3712	1188.884656057215	0
0	3719	1189.098015003549	1
0	3728	1194.269967352244	2
0	3729	1194.945430837407	1
0	3734	1198.151466081343	0
0	3769	1203.37138919072	1
0	3772	1205.578000443432	0
0	3779	1206.076152576306	1
0	3780	1206.309792885298	0
0	3792	1207.56933544175	1
0	3795	1210.159367013147	0
0	3802	1211.267199923934	1
0	3803	1211.978354511684	0
0	3815	1213.597681377356	1
0	3816	1213.607450747481	0
0	3822	1214.633138908104	1
0	3823	1216.092682979956	0
0	3837	1219.591218046634	1
0	3839	1221.696591703799	2
0	3845	1229.448146573258	1
0	3851	1229.59777625735	2
0	3852	1229.75547136975	1
0	3857	1229.828332120872	0
0	3871	1233.938524167012	1
0	3875	1239.762745919888	0
0	3887	1242.701901703255	1
0	3889	1243.43536739815	2
0	3893	1245.420965773714	1
0	3899	1246.270696625828	0
0	3906	1247.281599170757	1
0	3907	1247.411815899106	0
0	3948	1257.169472539294	1
0	3951	1259.035277483276	0
0	3962	1262.0426859319	1
0	3963	1262.539642114789	0
0	3973	1267.661693797475	1
0	3975	1269.032448597707	2
0	3978	1270.703615358892	1
0	3984	1271.433255626691	2
0	3988	1274.827361955662	3
0	3990	1275.688135451252	2
0	3995	1276.367216873124	1
0	4001	1276.499240011496	2
0	4003	1277.671068884799	1
0	4015	1280.56458697801	2
0	4016	1281.519218417227	1
0	4022	1281.541370951941	2
0	4023	1282.639208419465	1
0	4031	1283.457662655283	0
0	4048	1286.372010357968	1
0	4050	1286.546511887662	2
0	4056	1292.062683286716	1
0	4064	1293.488414841104	0
0	4070	1293.668272222115	1
0	4072	1294.226403380282	2
0	4076	1297.717220335904	3
0	4077	1298.27515092161	2
0	4084	1298.469748246322	3
0	4087	1301.743109613502	4
0	4088	1302.761031970017	3
0	4093	1303.584433613662	2
0	4099	1303.589409841771	3
0	4102	1305.443735303589	2
0	4109	1307.158111399997	1
0	4116	1308.852761247316	2
0	4120	1309.563876219812	1
0	4126	1310.780803353713	2
0	4128	1310.910196839101	1
0	4134	1314.732424905514	0
0	4158	1319.566724885677	1
0	4159	1324.341542454244	0
0	4165	1324.815243479347	1
0	4168	1331.91829544722	0
0	4175	1332.204162624061	1
0	4177	1332.284627978062	2
0	4178	1332.979512469102	1
0	4184	1333.738808485844	0
0	4202	1338.279693341591	1
0	4203	1338.356507939682	0
0	4210	1340.228504440852	1
0	4211	1340.252315772646	0
0	4218	1340.314679995065	1
0	4219	1340.362457124857	0
0	4255	1348.521059399016	1
0	4259	1352.42991476319	0
0	4267	1354.354929253386	1
0	4268	1355.521747040617	0
0	4303	1359.432093859029	1
0	4305	1362.395569404191	2
0	4306	1366.325076290871	1
0	4311	1366.799371086864	0
0	4327	1368.720943593755	1
0	4330	1369.651464059425	0
0	4336	1372.096990748201	1
0	4337	1372.240282246157	0
0	4350	1379.146111209488	1
0	4353	1381.20961812576	0
0	4367	1389.808827514039	1
0	4369	1390.693323014413	2
0	4370	1391.669264040626	1
0	4375	1392.008427462247	0
0	4381	1392.699330559862	1
0	4383	1393.91406497478	0
0	4393	1397.775630469826	1
0	4397	1398.534308541768	2
0	4399	1399.223541020842	1
0	4404	1399.571921694201	0
0	4412	1401.2102454933	1
0	4414	1401.99164834087	0
0	4420	1402.315023219084	1
0	4429	1404.807147369254	2
0	4430	1404.889498537464	1
0	4435	1405.445918934227	0
0	4446	1407.333678305117	1
0	4448	1408.517394750114	0
0	4454	1408.587075257554	1
0	4457	1410.962073484498	0
0	4469	1414.265435557515	1
0	4471	1416.330686841075	2
0	4473	1417.063236427176	3
0	4475	1417.181350703937	4
0	4477	1421.204679839045	5
0	4478	1421.902590202801	4
0	4483	1423.04786129223	3
0	4488	1423.356876302201	2
0	4496	1425.026642037925	3
0	4499	1425.665582976483	4
0	4501	1425.85241572784	5
0	4502	1426.497777707408	4
0	4507	1427.392038138709	3
0	4513	1427.487770326898	4
0	4518	1431.104397697808	5
0	4520	1432.235572556604	4
0	4526	1432.591028537709	5
0	4528	1437.114806352701	6
0	4530	1437.575567510731	7
0	4532	1438.648269570186	8
0	4534	1439.361527679518	7
0	4545	1442.09406018655	8
0	4546	1442.266566466837	7
0	4551	1442.430737581736	6
0	4556	1443.302437648247	5
0	4563	1443.917976101466	6
0	4567	1444.346627254435	5
0	4576	1448.456312552238	4
0	4581	1448.862572967202	3
0	4587	1449.369775232133	2
0	4595	1454.18009868914	1
0	4601	1454.409268837031	2
0	4603	1455.561533558743	1
0	4609	1457.414640428853	0
0	4615	1457.504495729436	1
0	4618	1457.879494813117	0
0	4664	1483.000991620436	1
0	4665	1483.896179975953	0
0	4694	1489.85941666859	1
0	4696	1490.553982356067	2
0	4704	1495.95565286617	3
0	4707	1498.54041307341	4
0	4712	1499.80818688244	3
0	4717	1500.652772238535	2
0	4722	1503.147233823769	1
0	4734	1505.698263475771	0
0	4740	1505.787023815908	1
0	4741	1506.163459341871	0
0	4775	1514.483832034901	1
0	4777	1516.270049032594	2
0	4778	1516.282298716026	1
0	4784	1519.940184227566	0
0	4790	1520.187870198196	1
0	4791	1521.00949260347	0
0	4808	1523.991236691081	1
0	4810	1527.051145994857	2
0	4811	1528.065137155602	1
0	4819	1529.538302607259	0
0	4825	1530.371121749524	1
0	4827	1532.955091607667	0
0	4867	1552.85138769919	1
0	4877	1558.031587794741	2
0	4880	1559.276785510458	1
0	4886	1560.821443786557	0
0	4897	1564.243518293466	1
0	4898	1564.502990196391	0
0	4921	1575.809939091878	1
0	4923	1578.306525801023	2
0	4930	1581.02013765008	3
0	4932	1582.660339407246	4
0	4934	1584.372383293358	5
0	4935	1584.605875297918	4
0	4941	1585.664294683151	3
0	4950	1590.383809602221	4
0	4952	1590.83050950067	5
0	4953	1592.614098175465	4
0	4958	1593.1897037413	3
0	4965	1595.107585809841	2
0	4972	1595.252902383412	3
0	4975	1597.969901024464	2
0	4981	1598.18966615446	3
0	4982	1598.378853583024	2
0	4992	1600.653632684786	3
0	4993	1600.923232017124	2
0	5000	1601.50483624923	3
0	5001	1601.560185650498	2
0	5009	1605.413313076922	1
0	5016	1606.7753606222	0
0	5035	1612.395389686178	1
0	5036	1618.056112156542	0
0	5056	1621.492702898121	1
0	5060	1622.505462112616	2
0	5061	1622.584305737006	1
0	5067	1623.020694881481	0
0	5073	1623.745708182781	1
0	5078	1625.190327766563	2
0	5080	1626.313746805336	1
0	5085	1627.071439932475	0
0	5102	1629.754858023152	1
0	5104	1630.766150196604	0
0	5120	1633.699951247421	1
0	5123	1635.868884610437	0
0	5130	1636.094344389342	1
0	5139	1648.832823837041	0
0	5146	1650.782493536793	1
0	5147	1652.346746165707	0
0	5153	1652.673969566945	1
0	5155	1653.784525393809	0
0	5165	1657.546715400625	1
0	5167	1659.877147192325	2
0	5171	1661.591718396278	3
0	5173	1662.463948835522	4
0	5174	1662.630169091636	3
0	5179	1662.656931748504	2
0	5185	1663.121776112547	3
0	5186	1665.581908885683	2
0	5195	1667.799716995709	3
0	5198	1670.802980206635	4
0	5199	1671.095628298881	3
0	5205	1672.565949018768	2
0	5211	1673.029655452805	3
0	5214	1675.656836742264	4
0	5215	1675.894690792718	3
0	5220	1678.164501017684	2
0	5226	1678.418353869725	3
0	5228	1679.884914876196	2
0	5234	1681.782333215274	1
0	5245	1684.291370111074	2
0	5246	1686.458680553185	1
0	5252	1687.57749893662	0
0	5260	1688.978376266482	1
0	5263	1690.829647735242	2
0	5265	1692.239877870493	3
0	5269	1694.592640300968	4
0	5271	1695.128480304495	5
0	5272	1696.330297707106	4
0	5279	1697.576733962276	3
0	5285	1698.436970059908	2
0	5294	1700.264125617336	3
0	5296	1701.190933580207	2
0	5304	1703.583563040201	1
0	5310	1703.902588786222	2
0	5315	1707.597838527714	3
0	5318	1712.958970259398	2
0	5325	1713.256997531982	3
0	5326	1716.641165744082	2
0	5331	1716.765529959457	1
0	5336	1717.069049983297	0
0	5348	1719.097039178149	1
0	5349	1719.986900405139	0
0	5359	1723.1647426413	1
0	5361	1723.429924455137	2
0	5362	1723.565685448918	1
0	5368	1724.036617757524	0
0	5375	1725.850188023908	1
0	5379	1727.910461529465	0
0	5391	1732.837040643641	1
0	5393	1732.969420588664	2
0	5400	1736.610694963548	1
0	5405	1736.851366573546	0
0	5417	1737.624456380283	1
0	5421	1743.197084647108	0
0	5448	1748.441801939231	1
0	5449	1749.145160906765	0
0	5457	1749.807782170991	1
0	5459	1750.597642426762	0
0	5478	1752.10498912473	1
0	5480	1753.63647575625	2
0	5483	1757.051029439248	1
0	5489	1759.76177264931	0
0	5508	1761.691366934931	1
0	5510	1764.486041160833	2
0	5511	1766.05543681419	1
0	5516	1767.344010634523	0
0	5529	1769.448685464836	1
0	5533	1770.636954898827	0
0	5562	1783.57437223434	1
0	5563	1785.104571743683	0
0	5579	1787.244909326803	1
0	5584	1788.087199996133	2
0	5586	1791.548796973602	3
0	5587	1793.172399882731	2
0	5593	1793.503902487313	3
0	5594	1794.182257771572	2
0	5604	1796.809288932353	3
0	5605	1797.992842500181	2
0	5610	1798.461026426855	1
0	5618	1800.184539260809	0
0	5626	1804.301601651826	1
0	5628	1804.660623129023	2
0	5629	1804.678933686783	1
0	5639	1809.281268408729	2
0	5640	1809.336542422384	1
0	5645	1809.353477016379	0
0	5654	1811.65132587946	1
0	5656	1812.980731734442	2
0	5657	1813.332177700288	1
0	5663	1814.092201641229	2
0	5668	1816.291409171411	1
0	5677	1819.944664390106	0
0	5693	1822.156113443191	1
0	5694	1823.532268326528	0
0	5733	1830.548706177342	1
0	5735	1831.399546456821	2
0	5736	1831.47466254072	1
0	5744	1834.393136017153	0
0	5750	1834.894161727721	1
0	5751	1835.069359127094	0
0	5764	1836.549126906298	1
0	5766	1836.791162784197	2
0	5769	1837.938305467901	3
0	5774	1841.232961255552	4
0	5776	1841.395083094948	5
0	5777	1843.148375605624	4
0	5783	1843.703747881748	5
0	5785	1843.832594399549	4
0	5790	1843.887879963925	3
0	5797	1844.572951510017	4
0	5803	1846.332073998253	3
0	5809	1847.296170438014	2
0	5814	1847.62292306595	1
0	5820	1848.54828534838	0
0	5826	1850.646914577132	1
0	5830	1852.212766782371	2
0	5831	1854.604507402361	1
0	5837	1855.660347371436	2
0	5838	1855.915070365093	1
0	5854	1860.602066840546	2
0	5857	1861.215133546346	1
0	5862	1861.569518596734	0
0	5872	1863.159149048466	1
0	5874	1864.520361881785	2
0	5875	1865.858045037461	1
0	5881	1868.365681940671	0
0	5920	1880.293383561762	1
0	5922	1880.339257832024	2
0	5924	1881.114670315856	3
0	5931	1885.369118013897	2
0	5937	1887.980715365696	1
0	5942	1888.03590236254	0
0	5948	1888.62518493743	1
0	5949	1888.726604162712	0
0	5963	1893.729843125594	1
0	5965	1896.691794116943	2
0	5966	1902.230941172267	1
0	5972	1902.338275718948	2
0	5975	1903.438909670752	3
0	5980	1905.083582380784	2
0	5985	1906.300567632179	1
0	5991	1906.921140269599	0
0	6001	1910.108820588674	1
0	6003	1912.08009420398	2
0	6004	1912.141187783876	1
0	6009	1913.397540805913	0
0	6029	1921.071997121881	1
0	6031	1924.114197396025	2
0	6032	1928.634314601736	1
0	6037	1928.830794146739	0
0	6058	1934.322496321362	1
0	6064	1938.59531001659	0
0	6087	1941.844981987371	1
0	6088	1944.504703955615	0
0	6100	1952.279114505272	1
0	6103	1954.554240842744	0
0	6115	1959.049574251809	1
0	6119	1960.811813393846	2
0	6120	1961.989865724368	1
0	6125	1962.014485083376	0
0	6144	1971.375917577254	1
0	6150	1979.060445269601	0
0	6169	1988.408512264217	1
0	6172	1990.670632152811	0
0	6179	1993.249375737252	1
0	6181	1993.335931018747	2
0	6182	1993.839439428814	1
0	6187	1994.358111362172	0
0	6217	2000.44175076458	1
0	6220	2001.941955710337	0
0	6231	2004.27144784693	1
0	6232	2004.379297341279	0
0	6241	2006.081411165981	1
0	6243	2007.193464386247	0
0	6269	2012.092592560571	1
0	6274	2015.625345875375	2
0	6275	2018.101587622656	1
0	6281	2021.393104398545	0
0	6320	2035.628580714467	1
0	6323	2037.7277058189	0
0	6330	2040.546585658626	1
0	6332	2041.060801569462	0
0	6339	2041.961136968998	1
0	6340	2044.05955895865	0
0	6351	2045.532001406017	1
0	6356	2047.534899773053	0
0	6365	2048.275904892428	1
0	6366	2048.427364896455	0
0	6381	2056.316509777212	1
0	6384	2058.414586816693	0
0	6393	2059.432345763475	1
0	6395	2061.52718799046	0
0	6415	2063.824208750727	1
0	6416	2065.192920053878	0
0	6426	2069.024391967253	1
0	6429	2071.320402423165	0
0	6446	2074.562445293232	1
0	6450	2078.385504516811	2
0	6454	2079.953481445846	3
0	6455	2080.164682163043	2
0	6461	2081.443518527896	1
0	6468	2082.732160755314	0
0	6477	2085.448917240872	1
0	6482	2086.438026772478	2
0	6484	2086.874002126612	3
0	6486	2088.195678179127	4
0	6490	2089.954049300378	5
0	6493	2090.788279826739	6
0	6494	2093.829913873118	5
0	6500	2094.00936420538	6
0	6502	2095.49690895364	5
0	6513	2096.967034993028	6
0	6514	2097.417764430062	5
0	6520	2098.150388727403	6
0	6522	2098.489309745076	7
0	6524	2098.69699016316	8
0	6526	2100.066799716296	7
0	6533	2100.914912572682	8
0	6538	2106.006338377657	7
0	6545	2107.164130623616	8
0	6547	2108.041381815707	9
0	6549	2110.330804598122	8
0	6556	2111.352165581097	7
0	6565	2118.528051528966	6
0	6570	2118.704417826048	5
0	6576	2119.258689244223	6
0	6577	2119.36174019563	5
0	6582	2119.873118597006	4
0	6587	2121.901026032748	3
0	6591	2122.866588488716	4
0	6597	2126.591147000142	3
0	6603	2126.786763563528	2
0	6608	2127.456452529582	1
0	6618	2130.908194906687	2
0	6619	2131.900217003499	1
0	6624	2133.324518776842	0
0	6628	2133.547153307117	1
0	6634	2136.709111663372	2
0	6636	2137.600098632345	1
0	6641	2139.439630677811	0
0	6680	2152.105296373471	1
0	6682	2152.333887926041	2
0	6683	2152.553019933389	1
0	6689	2153.104968538198	2
0	6694	2155.774182904033	1
0	6699	2156.80658514507	0
0	6713	2158.386144506602	1
0	6714	2158.77925718404	0
0	6731	2163.525000743558	1
0	6733	2163.583740234008	2
0	6736	2168.079370734126	1
0	6742	2169.211633681116	0
0	6751	2170.886235337817	1
0	6753	2171.479893410057	2
0	6759	2177.260909126012	3
0	6763	2179.900804208203	4
0	6765	2180.452185019917	5
0	6769	2181.688210718446	6
0	6772	2182.111932783152	7
0	6776	2184.680917913402	6
0	6783	2185.602233271151	5
0	6790	2186.9806102694	4
0	6798	2192.562311569734	3
0	6804	2193.793410535682	4
0	6807	2194.369065374378	5
0	6809	2197.594643940162	6
0	6812	2199.756808505202	5
0	6819	2201.073807983365	4
0	6824	2201.56312730201	3
0	6831	2202.306997822921	2
0	6836	2202.472639262215	1
0	6841	2202.8408272391	0
0	6849	2204.124335277839	1
0	6851	2205.016726290087	2
0	6852	2205.074365832776	1
0	6860	2206.923575839017	2
0	6862	2208.680098865056	1
0	6867	2208.953114219511	0
0	6873	2210.049387060452	1
0	6876	2210.804274853003	2
0	6880	2212.281966354954	3
0	6883	2214.188977758422	2
0	6888	2215.680396942508	1
0	6895	2217.986359432201	0
0	6903	2218.333473833872	1
0	6905	2220.08411857589	2
0	6906	2220.105950584139	1
0	6911	2220.433746711404	0
0	6921	2223.158397610609	1
0	6923	2223.501048245383	2
0	6924	2224.134732752575	1
0	6934	2225.561239437	2
0	6937	2226.302526144082	3
0	6938	2227.348529213722	2
0	6945	2229.384989374495	3
0	6946	2230.581569266608	2
0	6952	2231.469830879152	1
0	6958	2232.051126945938	2
0	6959	2232.967844213138	1
0	6965	2234.422348820086	2
0	6968	2236.413798830269	1
0	6974	2237.787971244368	2
0	6975	2238.130584861162	1
0	6981	2238.847618387608	2
0	6985	2239.425229411861	3
0	6986	2239.433223353832	2
0	6991	2240.642320994283	1
0	6996	2242.933036616681	0
0	7016	2246.350155249358	1
0	7017	2246.687244453222	0
0	7036	2249.712536563885	1
0	7038	2251.422354227438	0
0	7053	2254.379944780442	1
0	7055	2254.43212044612	2
0	7059	2260.602109139997	3
0	7060	2260.737831441964	2
0	7065	2261.759913564657	1
0	7074	2262.714054202098	0
0	7093	2269.706007371791	1
0	7095	2271.047266633971	2
0	7096	2271.097982398829	1
0	7101	2272.00360094526	0
0	7107	2272.081700513466	1
0	7109	2272.837742229609	2
0	7113	2274.142479421867	1
0	7118	2275.075258173419	0
0	7130	2278.405504912277	1
0	7132	2278.63234715439	2
0	7138	2281.12335036097	3
0	7142	2282.341334925918	4
0	7144	2282.88651691452	5
0	7148	2283.320672684088	6
0	7152	2284.548707981397	7
0	7155	2288.007984189207	8
0	7158	2288.473120214276	7
0	7164	2289.720088316825	6
0	7170	2290.53471769054	5
0	7178	2291.865381017546	6
0	7180	2292.53288139603	7
0	7181	2295.327081180828	6
0	7186	2296.119066772448	5
0	7192	2296.663853197833	6
0	7194	2296.874026255309	5
0	7201	2297.569799387328	6
0	7210	2300.76173723026	5
0	7215	2301.233498067261	4
0	7221	2301.911423929183	3
0	7227	2302.522614892157	2
0	7232	2303.325241511076	1
0	7241	2304.413561033748	2
0	7244	2306.96839476933	1
0	7249	2307.436138580835	0
0	7261	2307.974834786687	1
0	7266	2310.430835513102	0
0	7289	2311.395793350351	1
0	7291	2311.445060566672	2
0	7296	2313.725425089126	3
0	7299	2316.352995203328	2
0	7305	2316.735881899177	3
0	7307	2317.179305188498	2
0	7313	2320.559160105195	1
0	7321	2323.677900778289	0
0	7345	2329.408334301911	1
0	7346	2329.571283528118	0
0	7352	2330.060133589515	1
0	7355	2330.943130415316	2
0	7356	2331.648320510538	1
0	7361	2332.403930226256	0
0	7367	2332.538374707594	1
0	7368	2332.730410910171	0
0	7382	2333.423163328011	1
0	7385	2334.399112230355	0
0	7393	2335.867288840819	1
0	7396	2336.020737638624	2
0	7397	2336.297386462947	1
0	7403	2336.539106908838	2
0	7404	2336.577930238304	1
0	7409	2337.285741244932	0
0	7440	2345.205682487268	1
0	7442	2345.272777946898	2
0	7443	2348.130341502082	1
0	7451	2349.394852781629	0
0	7460	2350.636698473123	1
0	7464	2352.019674002128	0
0	7494	2366.296694283567	1
0	7496	2369.857491424666	2
0	7498	2370.522186401816	3
0	7500	2372.986269274784	4
0	7503	2373.603630987638	3
0	7509	2374.33909650374	4
0	7510	2374.723650211065	3
0	7519	2377.190046906119	4
0	7521	2379.423342232963	5
0	7522	2381.055813352765	4
0	7528	2381.186898381514	3
0	7533	2381.991970444272	2
0	7538	2383.525109454823	1
0	7545	2384.016856617958	2
0	7546	2384.687444088386	1
0	7554	2385.958204905308	0
0	7567	2388.611577238724	1
0	7573	2392.673492609581	0
0	7579	2392.675445004014	1
0	7580	2392.691251435433	0
0	7620	2405.943598881427	1
0	7621	2407.311638502458	0
0	7648	2418.236904139063	1
0	7654	2419.442281197389	2
0	7655	2425.25886145282	1
0	7661	2426.054662882791	2
0	7664	2427.222086131198	1
0	7670	2428.013896303268	2
0	7672	2429.030910023899	3
0	7676	2430.382503521657	2
0	7681	2431.491634972765	1
0	7687	2431.746792874405	0
0	7695	2434.76433480071	1
0	7697	2434.893454432205	2
0	7702	2439.122247937585	3
0	7704	2439.233614537549	4
0	7706	2439.818443926761	5
0	7707	2440.194536134751	4
0	7713	2440.837672292506	5
0	7716	2443.155828253561	6
0	7718	2443.341944175906	7
0	7720	2444.64732354325	8
0	7725	2449.797694030496	7
0	7730	2450.283981944192	6
0	7735	2450.332545650702	5
0	7740	2450.517695645122	4
0	7746	2451.294717927219	5
0	7748	2452.053320909302	6
0	7751	2455.175088782985	5
0	7757	2455.922497013153	6
0	7761	2457.429735864241	5
0	7772	2464.349912680411	4
0	7778	2466.07789959424	5
0	7780	2466.687983627777	6
0	7785	2468.602306041702	7
0	7786	2470.21631265246	6
0	7793	2473.156034535425	7
0	7795	2475.096605754735	6
0	7800	2475.267161839734	5
0	7806	2477.169823414596	4
0	7811	2477.907926524597	3
0	7816	2478.564938861915	2
0	7822	2478.632082214393	3
0	7824	2479.112698410475	4
0	7828	2481.384863800961	3
0	7836	2481.451609526061	4
0	7840	2484.545234979073	3
0	7845	2485.191367186226	2
0	7850	2485.694685302313	1
0	7855	2492.19349922441	0
0	7859	2492.316512185627	1
0	7864	2493.377996995578	0
0	7883	2495.253017562721	1
0	7885	2495.956793943372	2
0	7886	2496.305217128565	1
0	7891	2496.745118435286	0
0	7914	2505.485964818084	1
0	7918	2508.089992258694	0
0	7924	2508.836080757739	1
0	7928	2509.732899731238	0
0	7945	2516.383176164338	1
0	7950	2520.175745202804	2
0	7952	2520.633970213454	3
0	7953	2520.6962718027	2
0	7958	2521.70857053273	1
0	7966	2525.689995864717	2
0	7968	2525.939456266194	3
0	7972	2526.316671199405	4
0	7973	2526.726431750591	3
0	7980	2532.435459876006	4
0	7981	2532.903159712728	3
0	7987	2533.674884174093	2
0	7993	2535.001109518455	3
0	7995	2535.174909851269	4
0	7996	2535.518721169832	3
0	8002	2536.570575389601	2
0	8008	2537.298675463689	1
0	8019	2540.674889345967	2
0	8021	2542.14738003181	3
0	8023	2543.531915299028	2
0	8028	2543.55179600782	1
0	8034	2548.477071805559	0
0	8079	2560.443050479098	1
0	8081	2564.034493262505	2
0	8083	2564.815472032652	3
0	8087	2566.960040819921	4
0	8088	2567.688524402695	3
0	8095	2570.455841556915	2
0	8101	2571.709625602025	1
0	8110	2574.281972888314	2
0	8111	2574.69433359534	1
0	8116	2574.791250387916	0
0	8124	2575.717339116392	1
0	8128	2576.289603012334	0
0	8168	2585.482728555296	1
0	8169	2586.353812246743	0
0	8176	2587.375727989709	1
0	8181	2588.448777434745	2
0	8183	2589.171031828644	3
0	8184	2590.673852023216	2
0	8189	2591.231894412643	1
0	8195	2591.465752586777	0
0	8229	2609.493334599854	1
0	8232	2611.612655601373	0
0	8244	2613.766308070085	1
0	8249	2617.371506589887	0
0	8258	2619.426681125934	1
0	8263	2631.444702678495	2
0	8266	2635.413068535269	1
0	8276	2638.788177441296	2
0	8277	2639.270696311706	1
0	8284	2642.292226385782	2
0	8285	2642.401369047125	1
0	8291	2643.830920475266	2
0	8292	2645.1035470464	1
0	8299	2646.43785381271	0
0	8307	2649.891114649329	1
0	8308	2652.23870144191	0
0	8332	2656.97240253628	1
0	8333	2657.644772849787	0
0	8368	2666.630617039097	1
0	8369	2668.477852504952	0
0	8413	2679.804004372346	1
0	8415	2680.066533647214	2
0	8416	2681.627973774535	1
0	8423	2682.360075745281	2
0	8425	2682.385107951896	3
0	8427	2684.546920584658	4
0	8428	2686.128467115066	3
0	8433	2686.263300153242	2
0	8439	2686.482252540454	3
0	8441	2688.466322613247	4
0	8442	2689.217096981824	3
0	8448	2689.476203897762	4
0	8450	2690.276735140479	3
0	8459	2694.410146880134	2
0	8465	2695.101546895088	1
0	8471	2695.628028298044	2
0	8474	2696.296633453474	3
0	8477	2701.166366724842	2
0	8484	2706.25632774605	1
0	8492	2707.112919557409	2
0	8498	2709.189427218198	3
0	8499	2709.194436574929	2
0	8504	2709.392026694177	1
0	8512	2710.959302143381	0
0	8537	2723.89454942593	1
0	8538	2724.923057582885	0
0	8562	2729.398229664733	1
0	8564	2729.409634472479	2
0	8568	2732.648811593137	3
0	8570	2736.720428386519	4
0	8571	2737.30182477147	3
0	8576	2738.428356644979	2
0	8584	2739.226698853262	3
0	8585	2739.408463113781	2
0	8591	2739.772318104059	3
0	8594	2743.305467805121	2
0	8599	2743.469058153957	1
0	8608	2744.361986343522	2
0	8611	2746.149342473365	1
0	8619	2752.223002734782	0
0	8628	2753.058776730454	1
0	8629	2753.084358969523	0
0	8635	2753.844256129405	1
0	8638	2754.486242529189	0
0	8647	2757.396229482732	1
0	8651	2759.388252895896	0
0	8667	2765.633710876044	1
0	8669	2769.08671203268	2
0	8670	2769.157553826569	1
0	8675	2769.444432411822	0
0	8688	2772.606211175995	1
0	8689	2772.940925112267	0
0	8701	2775.237606380536	1
0	8703	2776.6645674503	2
0	8704	2777.84779634155	1
0	8710	2778.662208087037	0
0	8717	2780.027883007836	1
0	8719	2780.410482822097	2
0	8720	2780.617942121743	1
0	8726	2780.910420263263	2
0	8729	2786.883393837491	3
0	8730	2788.050305629786	2
0	8736	2789.389722517824	1
0	8743	2790.876097189728	0
0	8764	2793.317387835091	1
0	8765	2795.634082131856	0
0	8784	2803.305895665206	1
0	8785	2803.762886784351	0
0	8793	2805.473011201172	1
0	8796	2807.340441275808	0
0	8802	2808.994726527314	1
0	8804	2809.256132442807	2
0	8814	2813.838959693535	1
0	8819	2815.793249464149	0
0	8825	2816.242156773265	1
0	8828	2817.789460706287	2
0	8830	2818.752867509989	3
0	8834	2824.109726308585	2
0	8839	2824.212380663661	1
0	8844	2824.330611060556	0
0	8862	2826.470238595498	1
0	8864	2827.854976294355	2
0	8866	2828.558969302673	3
0	8870	2832.341341771792	2
0	8876	2832.93007614115	3
0	8880	2835.652745438651	2
0	8887	2835.938948165793	3
0	8888	2836.172803993469	2
0	8900	2839.768692814051	3
0	8901	2839.904000021294	2
0	8908	2843.705295027232	3
0	8909	2843.783744967157	2
0	8917	2846.718897341246	1
0	8922	2848.04404863091	0
0	8933	2850.081196845652	1
0	8935	2850.165290757527	2
0	8938	2850.740488255412	3
0	8940	2851.141139833348	4
0	8941	2853.114386497459	3
0	8947	2853.357088198884	4
0	8948	2854.01675277943	3
0	8959	2859.726779930987	2
0	8965	2860.480980444966	1
0	8970	2862.316680428602	0
0	8976	2863.605869291144	1
0	8978	2864.777814117193	0
0	8997	2867.904290023126	1
0	8999	2869.963246628865	2
0	9000	2870.159861313973	1
0	9007	2870.41671534601	2
0	9008	2873.135098604314	1
0	9017	2874.363866177383	2
0	9019	2874.681634412838	3
0	9021	2874.823287285751	4
0	9026	2878.347219366295	3
0	9033	2879.466031714231	4
0	9035	2881.036693480022	5
0	9036	2881.6541054026	4
0	9043	2882.191378255669	5
0	9045	2882.463257346016	4
0	9052	2885.085354546861	5
0	9053	2886.139618373802	4
0	9059	2889.837341355037	3
0	9064	2890.901663003275	2
0	9073	2896.159209334001	1
0	9080	2897.831779918348	0
0	9091	2898.370329199252	1
0	9093	2899.253194905439	0
0	9116	2901.481174060213	1
0	9118	2901.865445747157	2
0	9120	2902.52995179199	1
0	9126	2903.322337787048	0
0	9137	2904.055492938127	1
0	9140	2905.414246669695	2
0	9141	2905.84318191879	1
0	9149	2907.57603601963	2
0	9152	2908.922561872515	1
0	9161	2911.468181155508	0
0	9173	2912.720515548641	1
0	9176	2914.34335566601	0
0	9182	2914.775800196265	1
0	9186	2922.184862886417	0
0	9201	2927.066383046559	1
0	9205	2928.883302763446	2
0	9207	2929.599445451826	3
0	9210	2930.122361474987	2
0	9215	2930.2824732466	1
0	9224	2932.570377354335	0
0	9235	2933.484086541408	1
0	9236	2935.372140615568	0
0	9249	2940.129677943893	1
0	9252	2941.71358650139	0
0	9283	2952.159425831555	1
0	9286	2954.273515358366	0
0	9297	2957.792033259839	1
0	9299	2958.465968943111	0
0	9322	2964.836363220832	1
0	9323	2964.850578467594	0
0	9334	2965.354756930488	1
0	9337	2966.120182053091	2
0	9341	2968.057840718631	1
0	9348	2969.381198549036	0
0	9355	2969.855956473133	1
0	9360	2973.162200774671	2
0	9361	2973.32324634916	1
0	9366	2973.641197370045	0
0	9380	2975.267252931338	1
0	9385	2977.628355861345	0
0	9393	2979.221371505669	1
0	9394	2979.783545649555	0
0	9411	2984.285478116526	1
0	9415	2990.566568509941	2
0	9416	2991.631760590697	1
0	9421	2992.446786458326	0
0	9436	2995.846146890015	1
0	9437	2996.033331364225	0
0	9450	3005.581052998373	1
0	9451	3005.977261942747	0
0	9458	3007.29534793017	1
0	9460	3007.769566480753	0
0	9467	3008.186010038719	1
0	9469	3008.651207424862	0
0	9476	3011.341822818096	1
0	9477	3015.45948243169	0
0	9506	3021.806535636064	1
0	9508	3022.430348052564	2
0	9512	3023.208263132934	3
0	9514	3023.493295322871	4
0	9515	3026.051694683463	3
0	9521	3026.182316642389	4
0	9523	3028.130620367711	5
0	9524	3028.296759198207	4
0	9529	3030.015756825837	3
0	9539	3032.277695045494	4
0	9541	3033.201221520264	5
0	9544	3034.366301004431	4
0	9550	3035.134950548712	5
0	9552	3035.921962348367	4
0	9557	3035.996539099595	3
0	9562	3037.836449374296	2
0	9569	3038.967174407225	3
0	9571	3039.304224792754	4
0	9573	3040.103007211437	5
0	9580	3044.136068317392	4
0	9587	3046.029878217625	5
0	9590	3048.143099121935	4
0	9595	3048.401336061771	3
0	9600	3048.431818520696	2
0	9605	3048.475204490911	1
0	9611	3050.979138877456	0
0	9617	3051.044831804744	1
0	9621	3053.948610635208	0
0	9627	3054.457523176283	1
0	9628	3054.475512176059	0
0	9640	3058.481810106193	1
0	9641	3058.603810099811	0
0	9662	3060.553024420932	1
0	9664	3063.521328518079	0
0	9673	3064.827967750676	1
0	9675	3064.873174571766	2
0	9676	3064.927210645359	1
0	9681	3065.370526069114	0
0	9689	3066.150029978382	1
0	9690	3066.167184539277	0
0	9696	3066.185932592987	1
0	9699	3068.388005060509	2
0	9701	3068.412896536788	3
0	9703	3068.595164575719	4
0	9709	3070.760168410419	5
0	9713	3073.098116950115	4
0	9719	3073.281263455502	5
0	9721	3075.054446979894	4
0	9728	3075.520661883419	5
0	9730	3076.518335044272	4
0	9736	3078.95089992255	3
0	9741	3079.812122987373	2
0	9748	3080.777523686143	1
0	9753	3080.795478795179	0
0	9771	3085.099795672063	1
0	9772	3085.344897086993	0
0	9789	3087.862186564791	1
0	9792	3088.138966563092	0
0	9798	3088.904533026909	1
0	9800	3091.033083802198	0
0	9806	3091.508117251988	1
0	9808	3091.857933028251	0
0	9819	3097.172237068123	1
0	9820	3097.220454101515	0
0	9836	3098.036637496304	1
0	9838	3098.915117987613	2
0	9842	3101.704742861768	3
0	9844	3102.006258523353	4
0	9845	3102.879261239115	3
0	9851	3103.474197118714	4
0	9852	3103.648113964405	3
0	9858	3103.977005704951	2
0	9866	3105.145007192693	3
0	9868	3106.445013533156	2
0	9874	3106.970615076889	1
0	9881	3108.918548815817	0
0	9907	3114.816262944176	1
0	9908	3115.486192796276	0
0	9930	3122.281307652931	1
0	9932	3122.583220621962	2
0	9936	3126.430972703189	3
0	9937	3127.72075258838	2
0	9944	3128.342654500071	3
0	9946	3129.374371396241	2
0	9951	3129.666861153923	1
0	9956	3130.090936983134	0
0	9969	3131.779721596988	1
0	9971	3132.086633477707	2
0	9973	3133.174414726184	1
0	9980	3134.054198833258	0
0	9987	3134.189541600801	1
0	9990	3138.647594205884	0
0	10005	3143.441713785663	1
0	10007	3144.093127252925	2
0	10009	3146.372985821426	3
0	10011	3147.463229075872	4
0	10016	3149.147334830525	3
0	10022	3149.425974831981	4
0	10023	3150.831940615883	3
0	10028	3151.462078512906	2
0	10034	3153.187304446009	1
0	10042	3154.376307234631	2
0	10044	3154.405821566437	3
0	10046	3154.759452627667	4
0	10047	3155.226726900405	3
0	10060	3161.316308273902	2
0	10068	3162.993548058984	1
0	10076	3167.705611564129	0
0	10082	3167.715984173948	1
0	10084	3168.72086149142	2
0	10091	3169.929695618251	3
0	10095	3171.946534036918	4
0	10099	3175.193814621554	5
0	10100	3175.246647230116	4
0	10108	3177.335179635481	3
0	10113	3177.942783018984	2
0	10118	3184.698116046828	1
0	10124	3185.039288719321	2
0	10127	3188.271003312678	1
0	10133	3189.979473391535	0
0	10139	3190.002854549329	1
0	10140	3190.320183931384	0
0	10151	3190.832743360968	1
0	10153	3191.192291192603	0
0	10162	3194.70203340767	1
0	10163	3195.093636577732	0
0	10176	3196.567062258765	1
0	10178	3197.419990774979	2
0	10180	3199.03561886148	3
0	10183	3203.95117267432	2
0	10188	3204.249763715744	1
0	10194	3204.662290963213	0
0	10202	3206.197132157415	1
0	10206	3207.70471993542	0
0	10223	3212.999840256957	1
0	10225	3213.125825314441	2
0	10226	3214.649684707027	1
0	10235	3215.892103536184	2
0	10237	3217.458755497427	3
0	10238	3218.015947148499	2
0	10247	3221.14001068162	3
0	10252	3222.904492431697	2
0	10258	3223.480449698056	3
0	10262	3226.686656638513	2
0	10268	3227.673409965917	1
0	10274	3229.124584792066	0
0	10280	3230.708919013351	1
0	10284	3231.349561356057	2
0	10287	3232.597247933505	3
0	10288	3235.508683675694	2
0	10293	3236.176491569247	1
0	10302	3238.458089361434	0
0	10321	3244.215677480652	1
0	10323	3244.273763477552	2
0	10327	3246.373338278587	3
0	10329	3247.486297339799	4
0	10332	3248.515709282126	5
0	10335	3249.891733654243	6
0	10336	3250.555009138041	5
0	10341	3250.983987321117	4
0	10350	3257.326445082562	3
0	10355	3258.36465387839	2
0	10362	3259.169170387466	3
0	10364	3260.047612070362	4
0	10366	3261.005858457924	3
0	10372	3262.777565305306	4
0	10375	3264.314623186587	5
0	10376	3264.63385652721	4
0	10383	3265.321853643574	3
0	10388	3268.073579993012	2
0	10395	3270.30631517213	3
0	10397	3272.601588204266	2
0	10402	3274.034978506388	1
0	10411	3274.820112426307	2
0	10412	3275.933492969241	1
0	10419	3278.508117336176	2
0	10422	3279.690239295441	3
0	10423	3280.651515170285	2
0	10429	3283.162493854902	1
0	10435	3284.94602669935	0
0	10459	3288.577528345459	1
0	10460	3294.125481563994	0
0	10479	3299.820279007626	1
0	10481	3299.996628361683	2
0	10484	3301.487125152317	3
0	10486	3302.442457726062	4
0	10488	3304.705044772429	5
0	10491	3305.770124815645	4
0	10506	3313.608484555129	5
0	10508	3315.035101916603	6
0	10509	3316.576249896846	5
0	10515	3316.604515229444	6
0	10517	3317.038294586091	7
0	10519	3318.440637304695	6
0	10525	3319.236703266636	5
0	10534	3320.591804982988	4
0	10541	3320.789706666527	5
0	10545	3323.813528974186	4
0	10553	3325.719031218537	3
0	10558	3325.950493867117	2
0	10564	3326.358691831206	3
0	10566	3326.636797268157	4
0	10569	3329.576474570506	5
0	10573	3330.119886411218	6
0	10575	3330.716781009919	5
0	10582	3331.532662439297	4
0	10587	3331.623378594822	3
0	10594	3332.978102737047	4
0	10598	3336.272991452912	5
0	10604	3337.552790946933	6
0	10605	3337.799162227797	5
0	10611	3337.952709224361	6
0	10613	3338.504157302266	5
0	10618	3338.781474609896	4
0	10623	3338.854674430614	3
0	10629	3339.171451202641	4
0	10631	3339.77053239566	3
0	10638	3342.570222562423	2
0	10644	3345.03072994272	3
0	10645	3345.700347876336	2
0	10650	3346.457927642912	1
0	10658	3348.640696693978	0
0	10664	3349.263940274816	1
0	10665	3351.584693688425	0
0	10671	3351.778031230009	1
0	10674	3352.370001798079	0
0	10695	3362.678300536203	1
0	10701	3365.264826524298	2
0	10704	3366.70420457558	1
0	10709	3368.271843407452	0
0	10723	3370.702312563095	1
0	10727	3371.538178465374	2
0	10732	3375.45031154344	3
0	10733	3375.941865638122	2
0	10741	3380.669411455678	3
0	10743	3384.776114093224	4
0	10744	3385.282413491257	3
0	10749	3385.601096751045	2
0	10753	3385.951811617375	3
0	10755	3387.386810242704	4
0	10758	3387.787372511499	3
0	10766	3390.248990021091	4
0	10767	3390.924310512664	3
0	10771	3392.87881863988	4
0	10773	3393.364503183343	5
0	10775	3394.318485120523	6
0	10783	3399.892184057892	7
0	10785	3400.70715341784	8
0	10786	3401.482056154184	7
0	10794	3403.614917331707	6
0	10801	3404.619829193798	7
0	10802	3406.772191080228	6
0	10807	3407.073764566649	5
0	10812	3408.996187839519	4
0	10817	3409.368283790389	3
0	10825	3414.215996348117	4
0	10826	3414.316133944611	3
0	10832	3415.726490538564	2
0	10839	3416.301470076366	1
0	10845	3417.823682947364	0
0	10853	3420.11054845704	1
0	10856	3420.816415178404	2
0	10858	3421.13658640491	3
0	10860	3422.122642706996	2
0	10866	3423.049886087042	1
0	10871	3423.949658686669	0
0	10891	3425.216925274984	1
0	10893	3426.482842439592	2
0	10894	3427.279528776709	1
0	10900	3428.429881577047	2
0	10901	3429.630766540734	1
0	10909	3430.274639298341	2
0	10910	3430.35694546349	1
0	10918	3434.201443595219	0
0	10924	3434.288373922987	1
0	10926	3435.732120628239	2
0	10928	3436.139970137917	3
0	10930	3436.341701451268	4
0	10936	3439.644132993664	5
0	10938	3440.131116377002	4
0	10944	3441.117744189449	5
0	10946	3444.822498131317	6
0	10947	3445.275129606519	5
0	10953	3446.785970189205	6
0	10956	3447.471740523661	5
0	10964	3448.99838730557	6
0	10970	3451.276621545004	5
0	10975	3451.329342768761	4
0	10980	3451.817643195245	3
0	10987	3453.208032984567	4
0	10989	3453.238810472275	5
0	10991	3453.468731227788	6
0	10992	3457.657388012216	5
0	10997	3457.889520274439	4
0	11004	3458.628541199037	5
0	11008	3459.631977447141	4
0	11015	3460.981909627579	3
0	11022	3462.210871515521	2
0	11035	3468.201885279838	3
0	11036	3468.388648530687	2
0	11042	3470.996855396884	1
0	11047	3471.487641295948	0
0	11060	3477.229826756175	1
0	11061	3477.395634245248	0
0	11068	3480.375760107657	1
0	11069	3481.170625362259	0
0	11085	3482.445842537602	1
0	11087	3483.698465532707	0
0	11093	3484.627392379606	1
0	11097	3488.198957061917	0
0	11123	3495.963200080695	1
0	11125	3496.580316984579	2
0	11126	3496.587638682974	1
0	11132	3497.364131923235	0
0	11146	3499.540374665637	1
0	11148	3501.715986342789	2
0	11150	3502.806527192819	3
0	11152	3503.45398186068	4
0	11154	3504.155165040742	5
0	11155	3505.565955839703	4
0	11161	3505.756629099677	5
0	11162	3506.643849236403	4
0	11167	3507.755859927472	3
0	11173	3511.420902251497	2
0	11179	3511.69427788587	1
0	11185	3512.150637926522	2
0	11186	3512.991378345784	1
0	11190	3513.351339165755	2
0	11195	3514.924180259231	1
0	11200	3515.673654989851	0
0	11208	3518.791588300211	1
0	11211	3519.357604723161	2
0	11213	3519.396912124121	3
0	11216	3520.013135715942	4
0	11217	3521.354850690615	3
0	11223	3522.675543946958	4
0	11226	3523.589278187159	5
0	11230	3525.146588625027	4
0	11239	3526.510989304357	3
0	11246	3530.138082192833	2
0	11251	3530.639206629516	1
0	11257	3532.643274016477	0
0	11265	3534.894233636566	1
0	11267	3537.310187018775	2
0	11268	3538.126151496954	1
0	11276	3539.897302036933	2
0	11280	3544.651887283737	1
0	11286	3546.975102814312	0
0	11304	3551.37984779359	1
0	11306	3552.487936326112	2
0	11307	3552.5271944729	1
0	11313	3554.100651595765	0
0	11324	3555.48897554831	1
0	11328	3558.137399470682	0
0	11348	3559.815044229595	1
0	11350	3559.816385388484	2
0	11360	3560.316047446427	3
0	11363	3561.120870682167	2
0	11368	3561.316190253181	1
0	11375	3562.243918329564	2
0	11376	3563.303864203596	1
0	11384	3566.161454053812	2
0	11387	3567.359444455117	3
0	11389	3567.916469558693	4
0	11395	3569.945295544055	3
0	11402	3571.474022701482	4
0	11407	3576.251668137918	5
0	11408	3577.281775259149	4
0	11414	3577.578652883908	5
0	11415	3578.389552882302	4
0	11421	3579.139651230204	5
0	11425	3582.416562074089	4
0	11430	3583.079833623567	3
0	11438	3585.024724012489	2
0	11444	3585.713820430658	3
0	11446	3586.053202631016	2
0	11452	3587.53049613644	1
0	11457	3588.730138929611	0
0	11463	3589.071744430639	1
0	11465	3589.449046837397	0
0	11487	3592.108240264442	1
0	11490	3594.891344434463	2
0	11496	3597.420319697325	3
0	11497	3598.192930248289	2
0	11503	3598.71877477745	1
0	11515	3602.402792416145	2
0	11516	3603.906307939524	1
0	11522	3604.169973049915	2
0	11523	3605.093990548137	1
0	11529	3605.131509618123	2
0	11531	3605.911355464162	1
0	11537	3606.466719149199	0
0	11544	3607.596220842956	1
0	11546	3607.72468918156	2
0	11549	3608.699788473571	3
0	11550	3610.83296799166	2
0	11556	3612.3677090431	1
0	11561	3613.483901714536	0
0	11573	3616.618416046749	1
0	11575	3617.027393788763	0
0	11605	3623.45813707676	1
0	11606	3623.813541079767	0
0	11612	3624.297475645293	1
0	11614	3625.267328180448	0
0	11620	3625.504676856178	1
0	11623	3626.774500588908	0
0	11635	3629.195924954961	1
0	11638	3630.290945437087	2
0	11641	3632.174076036201	3
0	11642	3633.440947783854	2
0	11648	3634.042654493518	1
0	11655	3635.91851642293	0
0	11671	3640.351458552127	1
0	11676	3643.843812687668	2
0	11677	3644.303474579682	1
0	11683	3646.647109038927	0
0	11695	3648.112794250294	1
0	11696	3649.285086319084	0
0	11707	3649.77060149258	1
0	11709	3651.564503415455	0
0	11720	3653.853841869603	1
0	11721	3654.251454721807	0
0	11744	3667.566554335011	1
0	11750	3670.448644664757	2
0	11751	3671.459693566848	1
0	11757	3675.282067260424	2
0	11760	3676.68645109939	3
0	11762	3677.149978461379	4
0	11764	3679.103460473385	3
0	11770	3681.259685448074	2
0	11775	3681.329396537375	1
0	11783	3682.322379961324	2
0	11785	3683.130356163348	1
0	11797	3686.847254078139	2
0	11799	3688.681453280307	3
0	11801	3690.963650474991	2
0	11806	3691.80919251209	1
0	11811	3692.577460979146	0
0	11845	3700.060044878908	1
0	11846	3700.214269290973	0
0	11855	3702.31194254491	1
0	11857	3704.893795887784	2
0	11861	3709.507689995377	1
0	11867	3709.694794726433	2
0	11873	3713.920956346536	1
0	11878	3714.032549582968	0
0	11891	3720.78648842563	1
0	11894	3722.204164723207	2
0	11895	3722.240424898794	1
0	11900	3723.156601926716	0
0	11911	3728.007882922282	1
0	11920	3733.314190590502	0
0	11929	3734.794556953296	1
0	11937	3741.308987027663	2
0	11941	3745.397710417976	3
0	11942	3746.329062947851	2
0	11948	3746.757972020969	3
0	11952	3747.956457694266	2
0	11957	3748.129987451736	1
0	11962	3748.702993047349	0
0	11970	3749.925949857435	1
0	11971	3750.431361062817	0
0	11996	3759.054783648324	1
0	11997	3760.045863090073	0
0	12003	3760.637504917453	1
0	12005	3763.356245070329	0
0	12029	3768.568645150616	1
0	12035	3780.61597639931	2
0	12039	3789.74307919849	3
0	12040	3792.121246364196	2
0	12045	3792.345296495988	1
0	12052	3792.995782157688	0
0	12071	3795.929816742263	1
0	12074	3796.487039030054	0
0	12084	3797.607387845225	1
0	12091	3801.866518643788	2
0	12094	3803.953353597567	1
0	12100	3806.841737086882	0
0	12120	3810.33701461376	1
0	12123	3814.10418524965	0
0	12129	3815.161785085377	1
0	12131	3817.21683163066	2
0	12134	3817.538738458987	3
0	12135	3818.357443881631	2
0	12141	3818.62766272414	3
0	12142	3819.15882716051	2
0	12147	3820.077978294077	1
0	12152	3821.545848298284	0
0	12158	3821.794964701269	1
0	12159	3823.071414223787	0
0	12163	3825.473156463539	1
0	12169	3827.51031640205	0
0	12176	3829.435371013436	1
0	12180	3831.395166145191	2
0	12183	3831.924131763103	3
0	12188	3836.933983446204	4
0	12191	3839.080802789176	3
0	12198	3839.104966074751	2
0	12205	3840.029670559422	1
0	12211	3840.592667921718	0
0	12217	3841.004349684395	1
0	12220	3843.824671777862	0
0	12229	3844.39546908022	1
0	12231	3845.779385223575	2
0	12232	3846.555071653379	1
0	12238	3847.86201892304	0
0	12260	3856.322470536508	1
0	12264	3857.338064772019	2
0	12265	3857.798666167516	1
0	12275	3859.784712199764	2
0	12276	3860.385574878627	1
0	12282	3860.409361415501	2
0	12284	3862.831551796613	1
0	12290	3862.992157171524	2
0	12292	3865.308576694012	1
0	12298	3866.596189024383	0
0	12310	3871.187687731684	1
0	12312	3871.211533477305	2
0	12313	3875.623761115483	1
0	12319	3876.477071624656	0
0	12363	3897.484976825059	1
0	12364	3897.6937201447	0
0	12394	3908.91569908632	1
0	12395	3910.771051968154	0
0	12409	3912.769401636002	1
0	12411	3914.991753127804	0
0	12417	3915.552091842426	1
0	12419	3916.040369755159	0
0	12460	3928.471857370195	1
0	12461	3931.295824842425	0
0	12467	3932.149073544938	1
0	12469	3934.751929170014	0
0	12479	3938.264768525623	1
0	12481	3940.822720197071	2
0	12485	3941.779893579442	3
0	12487	3941.905979980898	4
0	12488	3943.468489150341	3
0	12495	3944.158836147478	2
0	12501	3944.468777105773	1
0	12509	3945.151257186058	0
0	12528	3951.086021229985	1
0	12530	3951.992411425165	2
0	12532	3952.200526357964	3
0	12535	3953.204088291587	2
0	12540	3954.01990622598	1
0	12551	3958.225313800503	2
0	12552	3958.240826098173	1
0	12557	3958.761157460274	0
0	12565	3960.598517075	1
0	12566	3962.851325825479	0
0	12572	3962.901653011989	1
0	12573	3963.040912009117	0
0	12580	3964.631733672017	1
0	12581	3964.753876701748	0
0	12618	3976.784843989605	1
0	12620	3978.293563946457	2
0	12625	3981.994075430246	1
0	12631	3983.027507058567	0
0	12655	3997.035481193241	1
0	12657	3997.098330406018	2
0	12662	3998.456729756495	1
0	12667	3999.175897845746	0
0	12674	4001.066199106131	1
0	12675	4001.303628435064	0
0	12690	4002.986511550398	1
0	12693	4006.338476177565	0
0	12699	4006.736209389331	1
0	12701	4007.038811347396	2
0	12702	4007.838658698129	1
0	12709	4008.046178599455	2
0	12717	4014.069205414117	3
0	12721	4015.072193087718	4
0	12722	4020.825446803146	3
0	12727	4020.908044245292	2
0	12733	4021.524259300782	3
0	12735	4022.92989339634	2
0	12746	4030.71065539786	3
0	12749	4034.342697259823	2
0	12754	4034.957104643815	1
0	12763	4037.123178777125	2
0	12765	4038.288305736128	1
0	12774	4043.016669206221	2
0	12775	4043.275722876147	1
0	12781	4043.691518127265	0
0	12793	4046.105539124824	1
0	12794	4047.289169899457	0
0	12816	4054.286923581403	1
0	12818	4055.049668804076	2
0	12819	4055.767399973207	1
0	12824	4055.82375844571	0
0	12836	4061.172704119799	1
0	12838	4061.33290038643	2
0	12839	4061.597314417263	1
0	12845	4061.703693946243	2
0	12853	4065.071433590898	1
0	12860	4066.331486942829	0
0	12890	4072.5785422344	1
0	12891	4073.214228481545	0
0	12897	4073.681046889625	1
0	12900	4077.496223297131	2
0	12901	4077.789757955909	1
0	12908	4080.080094040579	2
0	12909	4082.430845070157	1
0	12916	4085.775077444245	0
0	12923	4086.703784326749	1
0	12925	4086.878417682864	2
0	12927	4088.547859402694	3
0	12929	4088.839807594546	4
0	12931	4090.908305271067	5
0	12934	4097.413934141001	4
0	12944	4101.500021934453	3
0	12950	4101.612984532245	4
0	12954	4106.062481616233	3
0	12964	4107.17593723352	4
0	12967	4110.190462851748	5
0	12968	4116.388830551754	4
0	12974	4116.514696300873	5
0	12976	4117.197626084306	4
0	12983	4119.527168125766	5
0	12984	4119.704536494933	4
0	12994	4124.072845715837	3
0	13002	4126.309781211735	2
0	13011	4130.669466022772	1
0	13017	4131.322279531714	2
0	13019	4132.821595995646	1
0	13025	4133.228230284814	2
0	13030	4134.069895941417	3
0	13035	4136.292643825836	2
0	13043	4137.185545198075	3
0	13046	4138.196871914058	2
0	13051	4138.753618667517	1
0	13056	4139.106108502483	0
0	13062	4140.167264535968	1
0	13067	4141.528578196987	2
0	13069	4143.37395218168	1
0	13078	4151.243901035204	2
0	13079	4151.888072531679	1
0	13084	4152.772897354666	0
0	13128	4162.850822466815	1
0	13133	4167.094342033526	0
0	13145	4171.452383089722	1
0	13150	4176.349571344699	0
0	13161	4180.747347621816	1
0	13163	4181.250096415727	2
0	13165	4181.747855810561	3
0	13171	4185.312289876355	4
0	13175	4187.966113101096	3
0	13181	4188.610457288232	2
0	13186	4188.775414208206	1
0	13192	4189.254424496063	2
0	13193	4191.692836255778	1
0	13200	4194.031157925835	0
0	13210	4198.230240661974	1
0	13211	4200.211107106203	0
0	13219	4202.966282356036	1
0	13220	4205.589394005345	0
0	13227	4208.529777580874	1
0	13228	4209.807914978176	0
0	13249	4219.283750913743	1
0	13251	4222.517606676573	2
0	13255	4223.777989443234	1
0	13263	4225.486169511281	0
0	13282	4229.577744132846	1
0	13283	4230.277136333956	0
0	13298	4233.06997486313	1
0	13303	4235.242225967606	0
0	13309	4235.794931352593	1
0	13312	4240.093074122978	0
0	13326	4243.286774995362	1
0	13328	4243.365315170273	2
0	13330	4249.89278557833	3
0	13331	4249.960864998357	2
0	13337	4250.579876702294	3
0	13339	4250.859539901381	4
0	13340	4251.688887114002	3
0	13351	4254.728860525064	2
0	13356	4255.514441781042	1
0	13368	4258.072460388666	2
0	13370	4259.401371352286	3
0	13371	4259.802365125891	2
0	13376	4260.888576555995	1
0	13382	4263.196129153338	0
0	13391	4268.479952831633	1
0	13396	4273.415848133106	0
0	13404	4274.997977921422	1
0	13410	4282.113798494956	0
0	13416	4282.366701228421	1
0	13420	4286.732509075692	2
0	13421	4286.827961504692	1
0	13427	4289.37069595996	0
0	13444	4296.82055837488	1
0	13448	4298.467409716846	2
0	13449	4298.626220879406	1
0	13461	4300.887745464391	0
0	13481	4304.688555852162	1
0	13482	4309.730417941787	0
0	13488	4310.332383499141	1
0	13490	4310.355584987217	2
0	13492	4310.457655712531	3
0	13494	4310.478023196839	4
0	13495	4312.150670737068	3
0	13501	4313.774208374551	2
0	13506	4315.195982927653	1
0	13512	4316.84064390826	0
0	13518	4317.464598581168	1
0	13520	4318.322496695577	2
0	13523	4318.763013938377	1
0	13528	4319.777080433323	0
0	13535	4321.362265709791	1
0	13538	4323.11539288211	2
0	13539	4323.815796141197	1
0	13544	4324.404272600222	0
0	13552	4325.787974225777	1
0	13554	4327.454288214421	0
0	13565	4328.078811848512	1
0	13568	4328.676660765714	0
0	13596	4333.240834166376	1
0	13599	4334.333949347543	0
0	13616	4336.676789599249	1
0	13619	4342.743904395498	0
0	13646	4348.120272411798	1
0	13649	4349.14507465968	0
0	13662	4350.479851641024	1
0	13668	4357.80811995002	2
0	13669	4358.310845080326	1
0	13676	4359.882784902733	0
0	13695	4368.59664575037	1
0	13696	4369.896029195738	0
0	13708	4374.027562753309	1
0	13711	4377.452466559178	0
0	13717	4378.207806330943	1
0	13718	4378.912919363636	0
0	13724	4379.085391699374	1
0	13727	4380.3254403749	2
0	13729	4380.569996205805	1
0	13737	4381.119244366624	0
0	13749	4385.065948834438	1
0	13751	4385.333605542824	2
0	13753	4386.67978208349	3
0	13754	4386.835835092015	2
0	13760	4388.094484057108	1
0	13766	4388.954692750841	2
0	13767	4388.997683178605	1
0	13779	4394.135980209236	0
0	13798	4396.988145930813	1
0	13799	4402.259482547617	0
0	13811	4404.241784368265	1
0	13813	4405.92159150089	2
0	13815	4406.214315325692	3
0	13819	4408.67183301071	4
0	13820	4411.268073298926	3
0	13829	4413.845344437851	4
0	13830	4413.946882818182	3
0	13835	4414.125172366453	2
0	13845	4418.409071616253	3
0	13847	4418.501908522931	4
0	13850	4421.994873269357	3
0	13856	4422.033403449288	4
0	13859	4422.464952402722	5
0	13861	4426.347735470594	4
0	13867	4427.778455100917	3
0	13873	4428.117830812457	4
0	13875	4429.542252138175	5
0	13876	4431.601523866606	4
0	13883	4432.792800535956	3
0	13888	4438.81011661448	2
0	13896	4442.290592048638	3
0	13897	4442.804013684058	2
0	13903	4443.49880820566	3
0	13904	4444.708319673353	2
0	13911	4446.484235539371	1
0	13919	4450.077577988355	0
0	13934	4451.441133881206	1
0	13938	4452.667720303322	2
0	13939	4453.397802520965	1
0	13945	4454.714601062971	2
0	13949	4459.021047809614	1
0	13955	4459.350942969213	2
0	13957	4465.279095601206	1
0	13966	4469.985407970601	2
0	13968	4470.749933392216	3
0	13969	4471.509545321911	2
0	13976	4474.192711160144	3
0	13977	4476.069941302554	2
0	13983	4476.691298913084	3
0	13986	4479.299664109037	4
0	13987	4479.817662432809	3
0	13994	4481.061053939627	4
0	13997	4485.591249089419	3
0	14007	4489.176332059075	4
0	14008	4489.254501426199	3
0	14014	4490.492572273641	2
0	14019	4490.818950641692	1
0	14024	4491.027081747327	0
0	14040	4492.342298761983	1
0	14043	4495.092325215286	0
0	14066	4497.988751268382	1
0	14067	4502.513147914783	0
0	14091	4507.434469329541	1
0	14093	4507.615479293474	2
0	14095	4510.661299263721	3
0	14096	4512.540938032052	2
0	14106	4517.719838940826	1
0	14112	4517.876359898802	2
0	14113	4518.008891448327	1
0	14119	4518.559056599474	2
0	14123	4520.080208206593	3
0	14127	4520.938724925132	4
0	14129	4521.549354434197	5
0	14130	4522.194170926145	4
0	14136	4523.282219968494	3
0	14141	4523.952296185329	2
0	14150	4524.800837498025	1
0	14157	4525.709137967307	0
0	14173	4530.819576636508	1
0	14175	4532.03302899946	2
0	14176	4532.642090364121	1
0	14182	4533.097266052666	2
0	14185	4536.924392387888	1
0	14195	4539.861383196228	0
0	14201	4539.882305760894	1
0	14202	4542.034538842765	0
0	14217	4544.208767438269	1
0	14218	4544.380139708389	0
0	14250	4552.234504774786	1
0	14254	4553.610358814667	2
0	14256	4553.836637001616	3
0	14259	4556.394563415527	2
0	14271	4558.238432873807	3
0	14272	4559.245445837795	2
0	14278	4560.635883611326	3
0	14280	4567.039019256351	2
0	14286	4567.942154449561	3
0	14287	4568.228414087582	2
0	14298	4573.469868826955	3
0	14299	4573.509723882169	2
0	14306	4574.923776952511	3
0	14307	4575.223571145574	2
0	14314	4576.00757904581	3
0	14315	4576.241914606822	2
0	14320	4576.677875784139	1
0	14325	4577.594090169324	0
0	14358	4584.685507632304	1
0	14363	4585.871903951478	0
0	14376	4587.508488091918	1
0	14377	4587.609909629119	0
0	14384	4588.9502659727	1
0	14386	4589.317922062557	2
0	14389	4592.00702722745	1
0	14395	4592.215227251905	0
0	14401	4592.383690693083	1
0	14404	4593.209597425999	2
0	14406	4593.668524002742	3
0	14408	4595.668576577327	2
0	14414	4599.759252280357	1
0	14419	4599.778502157086	0
0	14426	4600.95531155652	1
0	14427	4601.516236495327	0
0	14445	4603.794736533924	1
0	14446	4604.156673740528	0
0	14467	4608.953925375909	1
0	14469	4609.169526287983	2
0	14470	4609.501578143235	1
0	14475	4609.86762117471	0
0	14482	4611.007777374595	1
0	14487	4613.067547230557	2
0	14491	4616.924720390146	3
0	14492	4617.3954519566	2
0	14501	4626.907255654602	1
0	14506	4627.38201277037	0
0	14541	4636.118034107745	1
0	14544	4639.404281858738	0
0	14551	4640.119622761719	1
0	14552	4640.788434809464	0
0	14568	4646.147146166064	1
0	14571	4648.863114985585	2
0	14572	4648.91543915417	1
0	14586	4652.657990270067	2
0	14587	4652.921184143846	1
0	14593	4653.183175715976	2
0	14596	4655.037400424459	1
0	14601	4656.81485259959	0
0	14607	4657.327279925892	1
0	14609	4657.628533815222	2
0	14610	4657.899395208574	1
0	14623	4665.436480174598	2
0	14624	4666.55191926389	1
0	14630	4667.243304762909	0
0	14636	4667.355031374445	1
0	14637	4668.02645534588	0
0	14656	4670.278345747246	1
0	14658	4670.601539107042	0
0	14691	4681.854496273961	1
0	14692	4682.657372478394	0
0	14698	4682.774614982182	1
0	14699	4683.077532358434	0
0	14744	4699.252047140861	1
0	14745	4699.299788729707	0
0	14754	4703.081275622752	1
0	14759	4705.081780762948	2
0	14764	4708.075955436328	1
0	14770	4708.921934557711	2
0	14772	4709.170560861318	3
0	14775	4710.076571848443	2
0	14781	4712.349850180759	1
0	14787	4712.595961667124	2
0	14790	4713.491730701009	1
0	14795	4714.101526663687	0
0	14823	4725.514505921209	1
0	14826	4729.828254437808	0
0	14843	4739.153019969645	1
0	14845	4740.200322595086	2
0	14848	4743.023378088496	1
0	14853	4743.240623103438	0
0	14888	4751.888967411189	1
0	14889	4753.44766160023	0
0	14911	4761.204426533308	1
0	14914	4764.815354815223	0
0	14933	4770.023577527784	1
0	14936	4770.461813664221	0
0	14942	4770.73061166659	1
0	14943	4771.720739645751	0
0	14960	4781.571522503324	1
0	14961	4781.856881957906	0
0	14976	4786.321630982392	1
0	14978	4788.404369746029	0
0	14984	4789.283854039862	1
0	14985	4791.17615228671	0
0	15005	4801.274133115354	1
0	15006	4802.643432677327	0
0	15022	4804.81184002193	1
0	15024	4807.413586796608	0
0	15064	4830.367835121216	1
0	15069	4833.368441792251	0
0	15096	4841.3431656359	1
0	15099	4842.318986997926	0
0	15112	4843.949922567278	1
0	15114	4844.879504107158	0
0	15126	4847.857452538409	1
0	15128	4848.346519065914	2
0	15131	4850.911482295128	1
0	15137	4851.338830277821	0
0	15155	4857.300565790543	1
0	15156	4857.994379230617	0
0	15163	4859.810915231073	1
0	15167	4862.288948915579	2
0	15169	4862.610541532065	3
0	15171	4863.258951411152	4
0	15173	4867.580636562084	5
0	15174	4869.999629144835	4
0	15182	4872.943121168886	3
0	15192	4874.960009791034	4
0	15195	4876.90352248675	3
0	15202	4879.205410873439	4
0	15205	4883.130494005047	3
0	15210	4883.165667551159	2
0	15218	4886.691015821363	1
0	15223	4886.718722108888	0
0	15237	4888.005107427516	1
0	15241	4892.65694296802	0
0	15268	4897.985881298358	1
0	15270	4898.118243233008	2
0	15272	4901.529401495324	1
0	15278	4908.670252065516	0
0	15284	4908.711962519576	1
0	15285	4909.968079540021	0
0	15292	4910.406308278254	1
0	15293	4910.417339724207	0
0	15302	4913.406553263703	1
0	15304	4913.863183549941	2
0	15306	4914.075980170179	3
0	15310	4916.557687322152	4
0	15313	4917.977626511491	3
0	15319	4919.507473648913	2
0	15325	4919.60720268334	3
0	15327	4923.482405434357	2
0	15334	4925.230225502275	1
0	15341	4928.994100905739	0
0	15349	4933.017061952121	1
0	15352	4934.855777315208	0
0	15371	4938.611812490779	1
0	15372	4940.205696288459	0
0	15387	4942.82716438142	1
0	15390	4943.986606390846	0
0	15396	4944.246701476608	1
0	15397	4944.345075556176	0
0	15403	4944.843820175469	1
0	15411	4947.727797411828	2
0	15413	4949.191656691668	3
0	15414	4949.340545365758	2
0	15420	4949.890477372873	1
0	15429	4952.463262494142	0
0	15447	4962.974601294941	1
0	15449	4963.156646336689	2
0	15456	4966.323673837541	1
0	15461	4966.599782417109	0
0	15467	4967.599937601189	1
0	15472	4969.530397684812	0
0	15481	4971.990728106488	1
0	15482	4972.532151402041	0
0	15504	4975.344357450918	1
0	15511	4979.599432475321	0
0	15520	4983.732075622696	1
0	15522	4984.273532991516	2
0	15524	4985.176740194902	3
0	15525	4985.471170467379	2
0	15531	4987.014782214139	3
0	15532	4988.947792105723	2
0	15538	4990.374008064882	1
0	15544	4991.47188616581	2
0	15547	4992.842392540639	1
0	15552	4993.091211347888	0
0	15581	5001.423710353334	1
0	15582	5003.307553948088	0
0	15608	5012.088541877925	1
0	15611	5017.231198742943	0
0	15617	5017.803302789029	1
0	15619	5019.25796303431	0
0	15631	5023.669277947432	1
0	15632	5026.677549201374	0
0	15639	5028.588907140351	1
0	15644	5033.817084815632	0
0	15668	5041.586750937792	1
0	15671	5043.08924483643	0
0	15682	5044.404267307506	1
0	15685	5045.503364507335	2
0	15688	5047.601169455799	1
0	15696	5048.806928339583	0
0	15708	5051.053739462127	1
0	15712	5051.140906439956	2
0	15713	5053.749492828929	1
0	15719	5056.148372560196	2
0	15721	5057.950842879498	1
0	15734	5063.308535329782	2
0	15735	5064.618712000669	1
0	15746	5067.709008541704	2
0	15747	5070.659202880607	1
0	15755	5072.141740163884	0
0	15767	5077.933349541948	1
0	15768	5078.028094715319	0
0	15774	5078.413389879129	1
0	15776	5079.491086404791	0
0	15802	5092.307742545091	1
0	15805	5095.82673717064	0
0	15812	5096.975309913047	1
0	15816	5099.014241344629	2
0	15818	5099.776660732763	3
0	15819	5101.401479517194	2
0	15826	5104.759994513671	1
0	15832	5106.245350686306	2
0	15834	5107.378805168427	1
0	15840	5109.572164799504	0
0	15854	5113.505599416438	1
0	15856	5113.573086145645	2
0	15858	5114.083810567424	1
0	15867	5115.732492856274	2
0	15868	5118.819881613359	1
0	15873	5119.040636736187	0
0	15884	5119.671899479529	1
0	15886	5120.741900161409	0
0	15906	5123.755832139634	1
0	15907	5124.444781191948	0
0	15916	5132.247567828867	1
0	15927	5134.473187866588	0
0	15933	5134.706580415635	1
0	15937	5139.091769456938	0
0	15952	5142.22501718743	1
0	15954	5145.162018798522	2
0	15956	5145.865993629521	3
0	15961	5146.719382405392	2
0	15967	5146.883746570061	3
0	15969	5147.076934969082	4
0	15972	5150.326288603939	5
0	15973	5150.568158980074	4
0	15979	5151.903119159195	3
0	15985	5152.993890700802	2
0	15994	5156.398939518826	3
0	15996	5157.65032528616	4
0	15997	5157.918025488585	3
0	16005	5159.686722514125	2
0	16011	5163.61937557181	1
0	16016	5163.673485545984	0
0	16028	5167.202339915455	1
0	16032	5167.817023797618	0
0	16038	5167.994907262383	1
0	16039	5168.269566728195	0
0	16047	5172.257569895421	1
0	16048	5173.755427054555	0
0	16056	5174.765005462712	1
0	16058	5176.000121679625	2
0	16059	5177.226083412224	1
0	16064	5177.302711827131	0
0	16077	5180.083625376981	1
0	16078	5180.479178985507	0
0	16088	5183.627369492625	1
0	16093	5185.488275935199	0
0	16101	5188.050656639834	1
0	16105	5188.135862185063	2
0	16107	5188.808735703051	3
0	16111	5193.161394897948	4
0	16112	5195.350032086729	3
0	16118	5197.132925254303	4
0	16120	5199.361902320082	3
0	16127	5200.335602448978	4
0	16132	5204.439429847619	3
0	16137	5204.685781306365	2
0	16143	5204.952585235294	3
0	16145	5205.283977979227	4
0	16146	5205.371185063515	3
0	16158	5212.451837002688	2
0	16165	5215.082107357922	1
0	16171	5216.878013454722	2
0	16172	5217.041300759397	1
0	16177	5218.78388378989	0
0	16197	5220.752485552672	1
0	16200	5223.330173020327	0
0	16211	5224.516919827812	1
0	16216	5226.42278673344	2
0	16218	5226.526956871717	3
0	16219	5228.409424819012	2
0	16225	5229.102561075654	3
0	16227	5230.033664978524	4
0	16229	5230.16867766572	5
0	16231	5230.209605786198	6
0	16233	5233.323274087826	5
0	16239	5234.668855254492	6
0	16240	5236.958377056342	5
0	16246	5238.106702860631	6
0	16247	5238.905573439774	5
0	16255	5239.926196689219	6
0	16257	5240.464147296916	5
0	16266	5249.761830540697	6
0	16269	5251.442960813873	5
0	16275	5252.173369998396	6
0	16277	5253.112748546076	5
0	16283	5255.329890312004	4
0	16289	5255.929535585211	5
0	16293	5258.017218746098	6
0	16295	5259.694282970069	5
0	16301	5261.76210821376	4
0	16306	5262.009113883174	3
0	16313	5265.21348254987	4
0	16314	5267.605654900633	3
0	16320	5268.529119584613	4
0	16323	5271.319442196821	3
0	16328	5271.732269058195	2
0	16333	5272.28696604305	1
0	16342	5274.65187305758	2
0	16343	5274.995261297604	1
0	16348	5275.568324675177	0
0	16354	5276.115774150838	1
0	16357	5276.824930199199	0
0	16363	5279.04096069417	1
0	16367	5282.306391110277	2
0	16375	5285.200999295256	3
0	16376	5286.496479448205	2
0	16383	5287.283446717301	3
0	16386	5289.319165936338	2
0	16391	5290.205695472108	1
0	16396	5290.914218866077	0
0	16461	5305.155379512706	1
0	16464	5309.080492950681	0
0	16477	5310.212997050152	1
0	16479	5310.324217382621	2
0	16481	5312.777799604277	3
0	16484	5313.353578354019	2
0	16491	5314.465112621028	3
0	16492	5315.634009942451	2
0	16498	5316.461573625767	3
0	16499	5316.614193237209	2
0	16504	5317.570374848977	1
0	16510	5318.388285052038	2
0	16515	5319.80608134742	3
0	16520	5323.406029070075	4
0	16521	5323.644321290398	3
0	16528	5326.19448150664	2
0	16533	5326.417471001876	1
0	16539	5326.63283713601	2
0	16540	5328.06028539526	1
0	16546	5328.11433985437	2
0	16552	5330.626302356411	3
0	16560	5332.382230365382	4
0	16562	5333.131588877205	5
0	16564	5333.729650982507	6
0	16565	5334.040950080544	5
0	16573	5336.731352790675	4
0	16581	5338.474141692025	5
0	16582	5339.717396544808	4
0	16589	5344.439364995417	5
0	16591	5346.9904469379	6
0	16592	5347.257500136804	5
0	16597	5348.752626890466	4
0	16604	5350.126438318275	5
0	16609	5352.181903108108	6
0	16611	5353.245323197614	5
0	16616	5353.351273224597	4
0	16622	5353.679867316959	5
0	16625	5356.181377218751	4
0	16630	5356.968475788427	3
0	16635	5357.610583383098	2
0	16640	5358.602452023646	1
0	16644	5359.520461505455	2
0	16649	5363.765694010082	1
0	16658	5368.102836247624	2
0	16660	5369.95038902333	1
0	16666	5370.578775574247	2
0	16667	5370.867536320531	1
0	16673	5371.289743069596	2
0	16675	5371.416879550411	3
0	16678	5372.061331876901	4
0	16680	5374.057555292851	5
0	16682	5375.452906377628	4
0	16687	5376.254663834901	3
0	16696	5377.321993204311	2
0	16706	5380.497082079407	1
0	16713	5381.599077118947	2
0	16717	5383.040511327302	3
0	16721	5387.659805805723	2
0	16727	5388.522747609739	1
0	16734	5389.514540126838	2
0	16735	5389.964935433081	1
0	16740	5390.337404679881	0
0	16746	5390.817540347945	1
0	16747	5391.096042556454	0
0	16754	5394.207720217464	1
0	16755	5394.470844908436	0
0	16761	5394.604436367254	1
0	16765	5395.600440812899	2
0	16766	5400.367372353348	1
0	16774	5401.960570947301	2
0	16776	5404.774164575973	1
0	16782	5406.520726663387	2
0	16783	5408.226208374722	1
0	16787	5408.253000590732	2
0	16789	5408.433235549243	3
0	16793	5411.613984314333	4
0	16798	5413.356007596448	3
0	16807	5415.707667379273	2
0	16815	5417.457899168352	1
0	16822	5418.898943734758	0
0	16833	5419.258421347561	1
0	16837	5421.108041594415	2
0	16838	5422.424570779438	1
0	16846	5425.06066733424	2
0	16848	5426.781115383779	3
0	16850	5429.49226995609	4
0	16851	5429.994648057485	3
0	16857	5431.909283357521	2
0	16866	5435.457983097062	1
0	16873	5437.770527154044	2
0	16874	5438.679881281449	1
0	16880	5438.827848068225	2
0	16884	5441.353549476639	1
0	16889	5445.322636518119	0
0	16896	5447.789118071453	1
0	16897	5448.691452031089	0
0	16916	5459.682029230092	1
0	16917	5465.226057344423	0
0	16923	5466.067623714376	1
0	16925	5469.695115644179	0
0	16932	5470.800457596235	1
0	16934	5471.095875958623	2
0	16936	5471.322322661212	3
0	16938	5472.596688110415	4
0	16941	5473.400886156816	3
0	16946	5473.578192867051	2
0	16954	5476.004791304022	1
0	16959	5476.02898370127	0
0	17000	5489.59646346049	1
0	17001	5490.329276257897	0
0	17008	5491.284088020025	1
0	17009	5491.308475589043	0
0	17017	5493.831031188186	1
0	17018	5495.676465676615	0
0	17029	5496.300407867314	1
0	17035	5497.432319186403	2
0	17037	5497.907323881383	1
0	17042	5499.450991243003	0
0	17048	5500.071837675982	1
0	17049	5500.240257675388	0
0	17063	5501.72100990016	1
0	17067	5501.870662512452	0
0	17073	5502.29066248912	1
0	17075	5502.36388841834	2
0	17077	5503.327472426033	3
0	17078	5503.478734364387	2
0	17092	5515.114608227628	1
0	17097	5515.258025880185	0
0	17108	5517.262857206024	1
0	17112	5518.160876907394	0
0	17135	5528.876977841037	1
0	17138	5530.256828887234	0
0	17144	5530.779768016698	1
0	17146	5533.197417845393	0
0	17152	5533.223948554005	1
0	17155	5534.458571568177	0
0	17175	5538.302138187105	1
0	17177	5542.77297536289	2
0	17179	5544.372011912719	3
0	17181	5545.65551354394	4
0	17187	5548.326816112061	5
0	17188	5548.800831386726	4
0	17193	5549.457694366406	3
0	17202	5550.55730114944	4
0	17206	5551.435247371989	5
0	17207	5552.115069572909	4
0	17213	5552.365946045482	5
0	17220	5553.139207656725	6
0	17223	5555.560963153976	7
0	17224	5555.727927912979	6
0	17234	5558.491643899745	5
0	17245	5560.247739515211	6
0	17249	5562.766458949124	7
0	17250	5563.042893454375	6
0	17256	5564.509264144253	5
0	17264	5568.327405344624	4
0	17270	5568.958595263868	3
0	17277	5573.056305596577	4
0	17279	5575.810583576092	5
0	17282	5578.858471992706	4
0	17287	5579.288962973585	3
0	17293	5579.57562228329	2
0	17299	5581.440846579381	3
0	17300	5581.688878650277	2
0	17310	5589.058339358859	1
0	17317	5592.239648047348	2
0	17318	5592.414686295591	1
0	17324	5593.06303578645	0
0	17343	5597.175469386532	1
0	17344	5597.816878816144	0
0	17372	5606.837906834051	1
0	17373	5607.249606889027	0
0	17379	5607.769468884675	1
0	17381	5608.138992964516	2
0	17384	5608.640970363971	1
0	17390	5609.456825639565	0
0	17406	5612.957162807857	1
0	17407	5613.089598712261	0
0	17424	5615.945179412518	1
0	17427	5620.567163864065	0
0	17452	5626.573375178077	1
0	17453	5626.577949693169	0
0	17474	5630.715370628561	1
0	17477	5632.564834465958	0
0	17494	5644.847442513062	1
0	17497	5648.42298772042	0
0	17521	5655.54297004638	1
0	17524	5655.987225643195	0
0	17533	5657.672313808425	1
[...]
4	81413	26538.22266377578	5389.4994645416
4	81418	26538.971135255947	5387.8284850138
4	81432	26543.084577471824	5377.0258318912
4	81487	26557.095889945368	5389.678676728
4	81498	26559.871459340943	5388.2850591671
4	81523	26564.333065681548	5386.9343600878
4	81529	26565.109340552295	5385.8843958356
4	81536	26567.330775024986	5378.0276134334
4	81543	26568.527580870402	5375.8217278971
4	81556	26570.50092315076	5377.0552815041
4	81566	26576.524739871588	5378.3259404011
4	81582	26579.041907039383	5372.8731303211
4	81601	26583.109023544112	5375.1375792227
4	81609	26585.509209535062	5366.8095502063
4	81615	26586.611542601687	5363.5631303553
4	81620	26587.103394025339	5359.5460137797
4	81629	26590.439445058032	5357.7508367533
4	81634	26592.145185590038	5358.0840010966
4	81639	26593.426790639416	5357.3308849808
4	81646	26598.383632545128	5359.2341223581
4	81688	26618.522754191546	5376.0671007228
4	81701	26622.512875173454	5370.1142232465
4	81706	26628.169311733999	5365.7049022856
4	81713	26634.331237912454	5362.4221325622
4	81740	26644.557601593777	5372.5105699568
4	81749	26648.073689233411	5364.5205938159
4	81766	26654.196975175658	5368.89708048
4	81779	26657.88735197173	5362.899306343
4	81807	26668.413197566986	5369.1368440717
4	81813	26672.410150221292	5371.0826636215
4	81830	26683.911919537376	5366.2671041093
4	81879	26698.416509274135	5378.2846324823
4	81890	26702.759634745828	5370.4878113409
4	81895	26705.531299304081	5372.4009539596
4	81904	26713.485520498012	5357.390676313
4	81915	26716.731553925183	5340.8193191817
4	81924	26718.177509544899	5333.3761583709
4	81943	26721.848151797521	5335.9602571439
4	81953	26726.335081678201	5338.2266178176
4	81970	26740.179794073422	5347.1506310191
4	81994	26744.99183667033	5351.5155331797
4	82024	26754.860446532303	5360.1534932653
4	82035	26756.081940275421	5354.4996442918
4	82040	26757.367159536023	5354.5620109387
4	82047	26759.28833336542	5351.3930261583
4	82065	26767.677089161965	5345.0736700972
4	82075	26768.790860356386	5339.2880051151
4	82080	26770.485370636424	5340.0597025719
4	82085	26771.007573882652	5337.6465872527
4	82090	26775.778867545536	5332.1669849566
4	82100	26779.401609256496	5328.5077086474
4	82207	26810.522606809257	5353.5615591275
4	82214	26812.251465395991	5354.7134790002
4	82226	26817.673629634053	5358.8111422421
4	82251	26828.124385102255	5355.9281758693
4	82296	26839.853215929182	5362.2744683521
4	82318	26844.767167542959	5358.3625060328
4	82328	26846.035296523925	5358.4228848429
4	82333	26846.276160323659	5346.2368838939
4	82342	26850.460095556331	5344.9009599303
4	82359	26855.575144262096	5349.4679785711
4	82364	26856.683203894267	5350.3241196691
4	82373	26861.09530150023	5349.0364671298
4	82378	26861.62257204323	5347.0622507208
4	82383	26868.19874723143	5344.6374003911
4	82388	26868.402572902052	5288.1301715132
4	82395	26871.886939208494	5283.9725469659
4	82402	26874.613497841762	5284.8412025659
4	82419	26883.663898466736	5293.0918914761
4	82457	26894.120386528813	5273.292248277
4	82464	26896.599345796867	5246.6450995183
4	82469	26902.268276630924	5248.9580422739
4	82474	26906.312695060738	5251.4717541936
4	82479	26908.875282307407	5252.0734507241
4	82484	26912.584979163028	5253.5486148328
4	82491	26913.79850495279	5249.1462639737
4	82514	26924.559170034092	5249.6130141234
4	82519	26924.802139487622	5243.9868594273
4	82526	26934.701609337906	5249.15404231
4	82541	26941.785377201131	5254.4094897259
4	82546	26946.219580554841	5253.8870196628
4	82551	26950.209352363771	5250.8621289052
4	82556	26952.018519723984	5248.5723744128
4	82563	26954.10278710689	5244.9360314533
4	82582	26962.963661484779	5223.307363399
4	82625	26973.297274314804	5231.6875356519
4	82631	26975.258045037755	5225.0858331393
4	82639	26977.509824344441	5226.5964210813
4	82662	26986.233951162021	5229.7850539839
4	82673	26988.890579202622	5213.5485831654
4	82684	26993.619593931042	5217.8588587986
4	82701	26999.209463191977	5202.8569455089
4	82882	27051.921779675731	5249.3534065794
4	82896	27059.644900178796	5248.6867395145
4	82923	27064.839581597493	5239.9436338693
4	82940	27070.393726593204	5237.6678708078
4	82951	27072.051978378145	5224.7878309858
4	82956	27074.92360552687	5227.6554777085
4	82970	27083.233254329878	5230.5651950113
4	83081	27121.107282083108	5260.1552289987
4	83089	27124.427620041056	5262.6380171791
4	83094	27125.396883582301	5245.8839772586
4	83099	27126.591063820041	5240.2004313234
4	83106	27127.170005925938	5234.7653670786
4	83117	27132.448791932931	5230.9886678376
4	83132	27138.431402680959	5236.9329167882
4	83145	27140.925909587127	5238.5337640954
4	83153	27144.021919590637	5230.4895067201
4	83176	27150.353937483333	5235.6281071087
4	83190	27153.94785335784	5234.3498473392
4	83197	27155.408883217712	5216.0541639868
4	83208	27160.581677894587	5219.774774005
4	83236	27168.549959282264	5226.4110545612
4	83246	27173.040634579242	5216.2906873329
4	83601	27277.431858227099	5314.8484255054
4	83608	27277.550563216768	5309.8920369073
4	83627	27284.038853534219	5313.6704495975
4	83640	27289.772994852278	5318.6451250307
4	83688	27307.274964906057	5325.1763164661
4	83693	27310.230969302419	5324.5796924931
4	83712	27318.188773937898	5326.9544338649
4	83811	27349.852581967519	5354.5404279541
4	83843	27359.968337062434	5346.4269456551
4	83855	27362.844396404356	5348.8873912605
4	83880	27372.209330127957	5352.3880637734
4	83912	27391.142817011777	5369.5547317153
4	83919	27394.942909173244	5362.1992465613
4	83934	27398.067726898646	5363.8744531799
4	83969	27407.197265259873	5365.3329865378
4	83976	27409.80298728951	5362.3738552749
4	84019	27423.396166014842	5374.0380615973
4	84038	27431.4472303942	5381.6930558042
4	84043	27432.345054307043	5368.7038518094
4	84056	27438.858040359591	5370.599136599
4	84083	27446.467860322831	5373.8472791616
4	84091	27448.218864111819	5373.9377060316
4	84104	27451.338910853603	5359.4287905918
4	84113	27455.402051486849	5352.9171350106
4	84124	27456.565170266653	5349.8537088608
4	84141	27468.393556531816	5359.3436709857
4	84274	27507.280192376835	5383.0988773038
4	84294	27514.263373606413	5390.0494170479
4	84305	27516.100631091514	5370.8387269355
4	84310	27516.3299396903	5353.8882889941
4	84319	27522.635136305958	5357.5631232027
4	84427	27568.833300912413	5401.2053970639
4	84459	27574.924852329922	5405.9931662726
4	84483	27586.151991850331	5413.3745199599
4	84488	27586.775776632863	5411.9136332792
4	84498	27589.696783704974	5410.6824709046
4	84525	27612.797168145721	5429.6146563098
4	84564	27623.316773150683	5431.8994910579
4	84573	27625.733526352945	5430.0559483742
4	84584	27635.402660008153	5438.6743258068
4	84610	27644.519693487589	5440.7939578869
4	84632	27651.450729290538	5441.5202909034
4	84641	27656.243521927466	5444.6988832308
4	84653	27657.472504342425	5440.8588771758
4	84672	27663.845465345643	5440.092364574
4	84782	27699.704939445325	5453.7514321893
4	84803	27702.293435043075	5447.5875338035
4	84809	27703.590593799145	5416.9225018212
4	84814	27704.504758448425	5415.4550133843
4	84823	27708.243624308897	5418.3945981809
4	84836	27709.231780608246	5407.2588812206
4	84856	27713.473715400049	5407.937856272
4	84897	27729.101756372262	5421.0984483433
4	84907	27730.980834105783	5417.2076912915
4	84951	27747.638912768393	5426.3767835757
4	84964	27750.370158766558	5421.6595996576
4	84973	27757.201598799627	5427.9282499033
4	85008	27767.156133180103	5437.1898042477
4	85223	27820.825932419616	5482.6468573189
4	85228	27822.781148620537	5479.3041488946
4	85233	27823.628315253865	5461.5453408001
4	85238	27825.173849787029	5459.4682364721
4	85256	27830.89202141656	5455.3940945808
4	85386	27886.46298610319	5510.186880114
4	85397	27889.38635307368	5510.2779493084
4	85402	27889.442089570022	5506.692739061
4	85407	27889.757580337361	5505.5098401702
4	85414	27890.787637635496	5505.9548751066
4	85423	27893.479078829504	5506.6738869523
4	85441	27898.352953999894	5500.4526637777
4	85481	27913.002810598385	5505.6365285181
4	85486	27913.02944710082	5505.1792199238
4	85491	27914.133041220492	5501.392024564
4	85503	27917.458206364959	5499.6289038996
4	85522	27921.784457719254	5503.5119626623
4	85529	27922.046834699587	5502.6635057358
4	85540	27930.501109694715	5502.4033900137
4	85570	27937.627155983487	5501.8939883481
4	85604	27944.330986740599	5505.6607385931
4	85658	27961.160592773285	5521.8634380387
4	85666	27961.512936269655	5515.7351213143
4	85677	27970.457852253532	5523.2252155484
4	85709	27980.553281741401	5524.1268719606
4	85739	27989.066624744433	5529.4840994036
4	85746	27990.82152958212	5524.5106433116
4	85763	28000.667029649677	5533.6664349603
4	85768	28000.978256299683	5526.5700366755
4	85775	28004.675687771328	5528.2071528173
4	85794	28009.832454507225	5531.1441462521
4	85821	28016.868236361225	5535.2237168178
4	85838	28021.813671359811	5519.0907657974
4	85845	28022.568127003862	5513.3496325987
4	85855	28022.714549099196	5497.847433095
4	85872	28028.658186320733	5501.674612733
4	85949	28048.800360531518	5518.6110288614
4	85960	28051.606693541556	5516.4442903162
4	85998	28057.605467624317	5519.667118865
4	86004	28060.099136653723	5515.7536009518
4	86020	28066.483780277627	5519.8256215225
4	86129	28093.29294433421	5544.1913911596
4	86203	28112.563512248209	5555.5965811303
4	86210	28112.921158633592	5547.8905470465
4	86229	28117.063187880873	5551.5312394831
4	86235	28117.984122195358	5549.4770877847
4	86242	28119.24554905245	5550.1993251944
4	86249	28120.921657592888	5549.5812297759
4	86254	28121.682179464501	5546.536871694
4	86264	28124.453621880803	5539.2662067507
4	86269	28124.766115699059	5523.3373753129
4	86278	28129.348553462719	5525.8746045589
4	86309	28139.643909066184	5527.4574867708
4	86314	28141.960935627469	5527.5289120954
4	86331	28158.043297011301	5528.486543487
4	86626	28260.065306218046	5629.9973550557
4	86631	28261.031675835342	5624.9499622612
4	86640	28262.946304081134	5618.9337756189
4	86725	28286.418022083066	5639.3056804382
4	86732	28287.481530369938	5640.2590768223
4	86754	28294.927226442505	5644.0337814601
4	86821	28319.811931718967	5652.5226101701
4	86826	28322.911746213317	5654.4050738679
4	86833	28326.895893662829	5657.5885866031
4	86846	28328.095914759784	5655.6402904
4	86853	28330.894624555953	5656.8653358978
4	86870	28343.752408799459	5668.9476093042
4	86897	28349.491468887849	5672.1149500654
4	86912	28359.126892446352	5678.7159770308
4	86925	28360.359818301133	5666.1520461073
4	86930	28363.846017749211	5667.3968165285
4	86940	28368.143319800138	5669.6478897554
4	86967	28372.995306263427	5667.2929523566
4	86972	28375.283018896032	5660.8198920029
4	86979	28376.942795234347	5654.4420497792
4	86998	28387.349139023142	5659.3290610845
4	87009	28391.377749254963	5655.4201951576
4	87014	28395.62832867358	5658.8502588695
4	87021	28398.281179988112	5660.7762278054
4	87036	28403.039672757651	5655.2589239778
4	87053	28410.833340590002	5647.5155453111
4	87064	28414.649053859995	5638.4785137661
4	87071	28417.15936069934	5630.8698584227
4	87081	28420.798847082406	5633.6263407508
4	87086	28421.70653670704	5634.0998894913
4	87099	28427.312467304538	5632.1752411382
4	87132	28436.611080980924	5640.1142631785
4	87137	28438.165267992399	5638.3943228643
4	87148	28447.867466959195	5645.041030647
4	87192	28459.253521045952	5654.1875111566
4	87253	28489.688001296164	5664.1423921339
4	87263	28490.668339957208	5663.1764853277
4	87284	28496.681104273599	5664.7587453634
4	87294	28498.929290028853	5661.5628471171
4	87343	28513.997821185696	5673.4943793712
4	87354	28521.106393411311	5678.4537552075
4	87368	28524.399667439936	5676.8551205939
4	87374	28524.709296561884	5673.9372299816
4	87388	28528.481066351201	5674.1635214361
4	87475	28551.81110355521	5691.3720095052
4	87496	28557.918086683306	5697.0039049062
4	87629	28612.354767939951	5751.0484562872
4	87640	28613.208590766617	5747.3427890012
4	87645	28613.963985164885	5747.7277551006
4	87658	28617.461557339653	5751.150260547
4	87686	28627.416921051121	5761.0048599675
4	87691	28630.107142357517	5746.6721469366
4	87701	28632.95270505197	5748.1737150083
4	87725	28636.41127877496	5741.5211066348
4	87732	28637.712785943294	5742.0551596141
4	87741	28641.807235664433	5739.2154175727
4	87757	28645.714068612429	5740.5097140627
4	87779	28662.660138270516	5746.6850200595
4	87831	28678.764145754882	5759.6426628732
4	87836	28678.777591459633	5747.4030445318
4	87841	28679.668144493002	5740.0953263675
4	87846	28682.109996379409	5735.4995611449
4	87853	28682.939700974812	5736.0192783768
4	87866	28687.35610650636	5739.5505384797
4	87881	28693.076558615733	5736.4145329951
4	87894	28696.815539499094	5735.6805198868
4	87903	28699.109439785169	5734.9370911578
4	87926	28706.596250809575	5735.3195316155
4	87937	28712.970509572361	5741.1632668088
4	87947	28718.674550380922	5746.6469225832
4	87964	28728.798571279901	5749.9488597161
4	87992	28737.088256937873	5754.1149069605
4	88009	28740.18195969586	5741.8797707492
4	88027	28745.356667545509	5746.7407629245
4	88032	28746.184674170867	5726.1375069584
4	88039	28747.817716848986	5720.4428609518
4	88049	28751.842461691568	5713.3616251457
4	88058	28755.343621235309	5705.5932898467
4	88099	28767.110841977761	5708.5224910303
4	88110	28769.611695150802	5705.4410297406
4	88121	28777.66282641557	5712.0013085054
4	88147	28784.299528032022	5708.0075364912
4	88160	28789.027865701659	5711.2650237619
4	88199	28802.688401550487	5720.4381049628
4	88233	28814.790563009315	5730.6993922668
4	88276	28835.718281938201	5739.6221515441
4	88307	28849.367775922388	5746.5993207307
4	88325	28851.828227718714	5741.2844160269
4	88334	28854.225932805961	5741.9627048991
4	88346	28855.359852532385	5737.7394228988
4	88353	28859.83695582772	5728.1882062645
4	88358	28861.955098762419	5718.7501300131
4	88367	28865.389386606256	5714.9533187207
4	88394	28872.875917479926	5718.8054896196
4	88475	28901.323362933305	5742.8957499697
4	88481	28903.132731797364	5741.4377471105
4	88486	28903.595062824772	5731.4237773842
4	88495	28907.442217401279	5728.0192964988
4	88506	28908.959971496264	5715.1145884511
4	88513	28911.876237295669	5713.6915140719
4	88522	28916.437938566063	5712.0331256689
4	88527	28917.23018417099	5708.7610717788
4	88537	28920.505422644862	5710.6078196543
4	88564	28937.794628197779	5727.8641955354
4	88590	28942.398721684642	5728.5513554837
4	88598	28943.812227354994	5721.9145616187
4	88613	28947.391838678062	5719.8011068948
4	88620	28949.77940008642	5718.194251904
4	88641	28961.360831910366	5729.3999594276
4	88800	29010.816817352822	5778.5337983282
4	88807	29015.062268468473	5775.7216063543
4	88824	29025.218770590034	5784.5479478154
4	88881	29041.696978763384	5785.8161181996
4	88892	29043.860376804911	5785.2139423423
4	88967	29060.658205519688	5793.953667307
4	88975	29062.761867248371	5791.8999802842
4	88981	29063.807716479666	5791.8784634484
4	88988	29064.538808760073	5791.5857548834
4	89001	29066.617512583518	5789.88002229
4	89008	29069.176768217128	5786.4124002397
4	89021	29073.945701750672	5775.0669536612
4	89030	29076.49608774128	5767.1556430563
4	89044	29080.983042711225	5748.7710136195
4	89051	29081.466162717281	5747.7315742134
4	89064	29085.047960977623	5751.1618599454
4	89089	29100.419825736485	5755.9199091573
4	89152	29116.460136259384	5770.7995065765
4	89163	29116.650209290915	5769.5404465244
4	89168	29116.856898900131	5767.3447506657
4	89178	29121.809937414716	5771.4283974237
4	89201	29128.998367995212	5773.9043891612
4	89372	29199.505567712593	5841.257905448
4	89380	29200.822829403064	5832.7318556466
4	89392	29204.260309040213	5827.3354846239
4	89402	29206.587374753346	5826.5035790794
4	89438	29216.123419558478	5835.351749902
4	89443	29216.342974378924	5828.457578455
4	89448	29218.77551758108	5816.1394121578
4	89463	29226.364789227584	5817.0161059904
4	89473	29227.944177811288	5818.1193411345
4	89482	29232.537605177895	5821.167910492
4	89503	29238.991596490557	5825.4991632683
4	89508	29239.335114553642	5824.4160902878
4	89513	29240.192296101356	5824.3133484511
4	89523	29244.199040039888	5824.4086993211
4	89559	29258.880620184443	5837.862360084
4	89646	29286.453386508479	5840.4563346826
4	89651	29287.265312611587	5831.3710052545
4	89657	29288.986152948785	5824.8982699607
4	89672	29298.636166201418	5831.6318124335
4	89708	29308.156420119747	5837.4195215095
4	89719	29315.752559834556	5843.8756830865
4	89874	29359.786577514204	5884.8012145189
4	89893	29361.150739171854	5883.8343205311
4	89904	29363.758473199018	5871.1143104817
4	89923	29370.31743631166	5866.9270563255
4	89964	29381.706590298634	5857.0231620179
4	89971	29387.727776163998	5855.4450173622
4	89980	29393.553377497238	5853.381250039
4	89994	29401.747316235425	5851.2285842441
4	90002	29403.796805162141	5850.5969762692
4	90009	29405.761457795284	5848.2067564796
4	90022	29410.448371595311	5833.3503029009
4	90040	29419.734206417953	5840.6976526616
4	90124	29443.368278266045	5862.2299720765
4	90132	29444.259720543157	5837.6828135623
4	90145	29445.535935557378	5835.0393177874
4	90150	29446.92932311301	5836.1838752814
4	90160	29450.643621735152	5838.8009730502
4	90174	29458.341646630665	5844.6805162865
4	90195	29462.585310618996	5847.6390607259
4	90210	29469.747239314375	5851.2955318034
4	90247	29482.382770911827	5844.4737204568
4	90254	29483.880275199399	5844.7993287008
4	90300	29497.265808035142	5838.1503338231
4	90311	29503.566689979086	5843.0749031616
4	90318	29505.190461826869	5843.8109915469
4	90331	29508.595235073452	5834.8445852362
4	90365	29515.783257877374	5840.5378497053
4	90370	29516.417314802577	5826.9956823929
4	90376	29518.652899406462	5828.6334363673
4	90386	29525.638747220569	5834.7451504467
4	90395	29529.810752110953	5837.0061920016
4	90407	29531.627270385739	5838.1230135084
4	90430	29536.417662213898	5837.9460321682
4	90441	29540.448628102342	5840.4656248133
4	90495	29547.218538521165	5844.9737369319
4	90500	29547.535170193975	5839.4008775244
4	90505	29552.60916267757	5842.2791304187
4	90510	29556.215344191017	5840.4094006338
4	90527	29562.087806599196	5838.265528763
4	90621	29586.146583023314	5857.5979308307
4	90628	29586.8274625567	5849.1689937563
4	90633	29586.890234945196	5843.3797089219
4	90639	29587.866164829845	5843.3113758643
4	90644	29589.671151893794	5842.7817210537
4	90652	29591.240498797276	5840.9895195159
4	90770	29620.980413177288	5852.7580769536
4	90777	29623.130299839238	5844.7692959506
4	90790	29630.103021177347	5847.6703137491
4	90805	29632.693947026003	5841.6607662081
4	90892	29659.558583177094	5860.1129556704
4	90898	29661.357303696997	5855.6885502603
4	90903	29662.44179883705	5850.8112098143
4	90910	29665.919373575401	5852.6403052482
4	91065	29707.542597634204	5892.4955016186
4	91116	29731.886161666557	5916.7390313471
4	91130	29735.091604578804	5915.4334490854
4	91138	29735.965906203422	5912.893513322
4	91150	29738.153871740043	5913.1595661344
4	91157	29742.126264269019	5917.1132347076
4	91183	29750.517131226356	5902.626692027
4	91210	29755.734467257208	5902.2054547137
4	91223	29758.72133890159	5904.6270759566
4	91442	29830.369807202082	5972.7741567761
4	91457	29831.715338850605	5964.5687156144
4	91466	29833.390625765005	5955.6366312934
4	91475	29838.123291393302	5960.2633162219
4	91504	29847.208801748302	5969.1605677107
4	91510	29849.234307696537	5970.5363692522
4	91515	29850.859566455301	5967.6653098658
4	91523	29854.144582034739	5966.9158389782
4	91528	29855.807729329025	5964.2653602614
4	91541	29862.399749197959	5970.5449632213
4	91560	29869.74886672775	5965.5431963703
4	91574	29872.100192616251	5967.6931877043
4	91618	29891.161104297789	5982.8828509262
4	91629	29897.460457313791	5988.8122048131
4	91650	29902.031585972838	5991.6774035489
4	91695	29912.113415614678	6000.4050863606
4	91721	29919.747861175849	6006.439573787
4	91737	29926.874651076778	6012.7909417005
4	91841	29961.681955205433	6016.5324409875
4	91857	29964.780546849435	6014.0006591588
4	91874	29973.968704101009	6019.8911560355
4	91897	29977.5905657599	6021.3569544335
4	91904	29978.743395017281	6014.5958056548
4	91911	29980.26931518868	6013.0001111994
4	91920	29981.756967543704	6013.9873599646
4	91942	29986.800042636331	6018.2538530533

