version 2
run Third-n2-19-20191016-17:05:04-14456
attr configname Third-n2
attr datetime 20191016-17:05:04
attr experiment Third-n2
attr inifile omnetpp.ini
attr iterationvars ""
attr iterationvarsf ""
attr measurement ""
attr network org.omnetpp.queueing.Pizza
attr processid 14456
attr repetition 19
attr replication ""
attr resultdir results
attr runnumber 19
attr seedset 19
param **.PS.maxInventoriedPS 2
param **.U1.interArrivalTime exponential(4s)
param **.U2.interArrivalTime exponential(6s)
param **.PS.serviceTimeForInventoryU1 exponential(1.4s)
param **.PS.serviceTimeForInventoryU2 exponential(1.4s)
param **.PS.serviceTimeDirectU1 exponential(1.8s)
param **.PS.serviceTimeDirectU2 exponential(1.8s)
param **.PS.probabilityProducing 0.8
param **.CS.serviceTimeU1 exponential(2.3s)
param **.CS.serviceTimeU2 exponential(2.3s)

vector 0 Pizza.EntryQueueU1 queueLength:vector ETV
attr interpolationmode sample-hold
attr title "queue length, vector"
vector 1 Pizza.CS queueLength:vector ETV
attr interpolationmode sample-hold
attr title "queue length, vector"
vector 2 Pizza.EntryQueueU2 queueLength:vector ETV
attr interpolationmode sample-hold
attr title "queue length, vector"
vector 3 Pizza.sink lifeTime:vector ETV
attr interpolationmode none
attr title "lifetime of arrived jobs, vector"
attr unit s
vector 4 Pizza.sink lifeTimeU1:vector ETV
attr interpolationmode none
attr title "lifetime of arrived jobs, vector"
attr unit s
vector 5 Pizza.sink lifeTimeU2:vector ETV
attr interpolationmode none
attr title "lifetime of arrived jobs, vector"
attr unit s
0	0	0	0
0	27	10.178522957092	1
0	28	10.488162937289	0
0	35	13.33328014756	1
0	36	13.39108515379	0
0	47	14.555550532866	1
0	51	15.229169870462	0
0	57	16.51315609442	1
0	63	19.791304240522	2
0	64	21.949170428342	1
0	71	23.61176357246	2
0	73	25.228659049222	3
0	76	30.391523014155	2
0	82	30.776335591735	3
0	84	33.233690805136	2
0	91	36.203166765569	1
0	97	36.815316918691	2
0	98	37.181716860918	1
0	106	38.711017568605	2
0	107	38.977416618708	1
0	112	39.491519370965	0
0	139	45.695660701725	1
0	142	47.436599412304	0
0	162	59.908829582182	1
0	163	62.853564885717	0
0	179	71.095872327233	1
0	182	71.839660734698	0
0	191	77.609120595371	1
0	192	79.711342839751	0
0	198	79.912307733045	1
0	201	81.764868926811	0
0	226	86.837780031892	1
0	231	87.643287998753	0
0	237	88.717918521007	1
0	239	90.76233450602	2
0	240	90.773442596134	1
0	247	93.626371799021	0
0	257	95.834728600055	1
0	261	96.98353013093	2
0	262	97.652550205395	1
0	268	98.499674434727	2
0	269	98.683172320316	1
0	275	98.873729898051	2
0	279	100.442071760177	3
0	285	103.910248038501	4
0	287	104.83226142533	5
0	288	107.097900271142	4
0	293	108.202840869595	3
0	301	110.934188304436	4
0	303	114.150499527366	3
0	312	116.740014028682	2
0	318	117.719780572687	3
0	319	119.388816082434	2
0	323	122.153751132363	3
0	328	125.32665717946	2
0	335	127.044771347748	1
0	340	127.90067164445	0
0	352	131.092023354234	1
0	354	132.895005464036	0
0	378	138.858824656216	1
0	379	139.636971208561	0
0	386	140.101623026512	1
0	390	140.538564736227	0
0	397	141.547251406155	1
0	400	142.086550012032	2
0	402	142.506219793543	3
0	406	143.618037782287	4
0	411	145.325737964201	3
0	416	147.212951231836	2
0	422	147.460807209096	3
0	423	148.196840784322	2
0	428	151.158289208936	1
0	435	153.360590260158	0
0	449	156.535711608547	1
0	451	157.026264498664	2
0	452	159.600826822376	1
0	459	160.747180585245	2
0	462	160.931793192226	1
0	467	161.05536868948	0
0	478	162.131692613449	1
0	480	162.381435574917	2
0	485	164.213753963336	3
0	489	165.648937507109	4
0	491	166.141594509848	5
0	492	167.192797986089	4
0	497	167.582915350901	3
0	502	167.889763442151	2
0	507	169.990458617307	1
0	516	171.604277596841	2
0	517	173.39074155373	1
0	522	178.134917103206	0
0	528	179.807761820627	1
0	530	181.20138773046	0
0	537	181.920317386648	1
0	539	181.937023860691	2
0	541	182.279394139707	3
0	545	184.123398830725	4
0	549	185.32463500285	5
0	550	187.778767549382	4
0	555	188.289734586319	3
0	559	189.07884343373	4
0	563	189.509505569514	5
0	565	189.581525586288	6
0	567	190.04813299321	7
0	570	193.606576126966	6
0	582	196.724217790866	5
0	588	198.195137212761	4
0	594	198.754269615564	3
0	600	199.259936300208	2
0	605	200.192794940363	1
0	611	201.098938054669	0
0	617	201.552799680597	1
0	620	203.459747231716	0
0	631	205.310214074564	1
0	634	207.655788216577	2
0	636	208.736035587186	3
0	639	209.5667026644	2
0	644	209.702019406762	1
0	650	209.792559483047	2
0	652	211.308614227223	1
0	659	212.440611948537	2
0	660	212.731022310404	1
0	669	214.573946434659	0
0	701	224.719865553322	1
0	704	228.33220790887	0
0	711	229.462870789413	1
0	715	230.56339986864	2
0	716	231.53521022922	1
0	722	232.268178238614	2
0	724	232.357750854097	3
0	725	232.703613183836	2
0	730	232.854418334204	1
0	734	233.269710432958	2
0	744	239.535020672641	3
0	746	240.651780154098	2
0	751	240.667982641034	1
0	755	240.885493044891	2
0	759	241.540748667659	3
0	760	242.470317374106	2
0	765	247.43932550697	1
0	776	251.773424375885	0
0	795	254.387155888347	1
0	797	254.884508870896	2
0	800	255.790313975107	3
0	804	256.715279926901	2
0	812	258.740429280711	1
0	817	258.754458705895	0
0	831	263.044578851455	1
0	838	264.563013527708	2
0	841	265.835586563819	3
0	842	266.716305882413	2
0	847	267.098862930313	1
0	856	270.49975030322	0
0	867	272.643892327812	1
0	869	273.427701736909	0
0	901	291.5902089765	1
0	902	291.930721353661	0
0	909	292.104932978207	1
0	910	293.216804210548	0
0	923	296.303562509601	1
0	928	298.61157502252	2
0	929	299.633921137131	1
0	937	301.135283793473	0
0	959	306.972783266324	1
0	961	307.76217235059	2
0	963	308.311576969912	3
0	967	309.140640537642	4
0	968	310.473660033792	3
0	973	312.046539392917	2
0	979	314.447899075456	3
0	982	315.142340764415	4
0	983	316.263066514364	3
0	989	316.389133738837	4
0	991	319.59442896912	5
0	993	320.171557947288	6
0	995	320.512178229139	7
0	996	320.778577696781	6
0	1006	326.246149185324	5
0	1014	327.198685285819	4
0	1021	327.337253155892	5
0	1022	328.526997123205	4
0	1030	329.541597444914	5
0	1032	330.166419118257	6
0	1033	331.145487561913	5
0	1040	331.442475901552	4
0	1047	341.984136900341	3
0	1052	342.493220664712	2
0	1057	342.70958700976	1
0	1063	348.848834576245	0
0	1092	353.288665098726	1
0	1096	356.682855667397	2
0	1098	358.507828408884	3
0	1099	360.033017476739	2
0	1105	361.09989386594	3
0	1107	362.233671479042	2
0	1115	365.198554068176	1
0	1122	366.946508840037	0
0	1137	372.56158443065	1
0	1139	372.799354642816	2
0	1149	375.709775600193	1
0	1157	378.279574384987	2
0	1159	379.225659181422	3
0	1160	379.696975043097	2
0	1165	380.079482982413	1
0	1171	381.65062771727	0
0	1206	394.748639628575	1
0	1207	395.667666476263	0
0	1258	412.622109060085	1
0	1260	415.670769807405	2
0	1261	418.240472014428	1
0	1268	419.687258015795	2
0	1269	420.120166564637	1
0	1275	421.330799839901	0
0	1281	421.911340293472	1
0	1282	422.683228091955	0
0	1288	423.352685633891	1
0	1290	424.007097359587	0
0	1294	424.494269317342	1
0	1302	427.585188609098	2
0	1303	428.041270084767	1
0	1310	429.199967372741	0
0	1336	437.325150491846	1
0	1340	438.181561997436	2
0	1342	439.031261559452	3
0	1345	442.137971544017	2
0	1351	444.455124266024	1
0	1356	445.074864903749	0
0	1369	448.456286478126	1
0	1372	449.209356570839	0
0	1385	453.404534985909	1
0	1387	454.616172984893	2
0	1392	455.791144145419	3
0	1396	456.473893100589	4
0	1398	457.734357018157	5
0	1399	461.471251572869	4
0	1405	462.78636511507	5
0	1407	463.672997800108	4
0	1413	465.848827784346	3
0	1420	466.098224949165	4
0	1422	466.25765896268	5
0	1423	466.333644181529	4
0	1430	468.95015881073	3
0	1438	472.316562283477	4
0	1440	473.134727095884	5
0	1441	473.245332973748	4
0	1446	474.66248716823	3
0	1451	474.719133483375	2
0	1457	478.514633578091	1
0	1465	479.685550056379	2
0	1466	480.212732749439	1
0	1473	482.352379295422	0
0	1511	493.206122981488	1
0	1513	494.080479608356	2
0	1521	500.688285850684	1
0	1527	501.967889787714	0
0	1534	504.929720072983	1
0	1535	505.102191656707	0
0	1545	508.555396985026	1
0	1547	508.816234009281	2
0	1552	511.205856425374	1
0	1559	511.889594476365	2
0	1560	512.06598921186	1
0	1574	516.511332783945	0
0	1595	524.671500125456	1
0	1597	524.984761923368	2
0	1604	526.183428775493	3
0	1605	526.226214872642	2
0	1614	527.816065244705	1
0	1619	528.268954582739	0
0	1645	535.487851486736	1
0	1648	538.831443751393	0
0	1671	547.877343835443	1
0	1675	549.789299244047	0
0	1707	562.589761975027	1
0	1709	563.702641173215	2
0	1710	564.109301117879	1
0	1719	567.394114321408	2
0	1721	567.656285531388	3
0	1724	570.556314804008	2
0	1730	571.082919475119	3
0	1732	571.43537508813	2
0	1740	572.825948689941	1
0	1745	572.896777680146	0
0	1753	573.786604200263	1
0	1754	573.82945867629	0
0	1776	579.601348227701	1
0	1777	580.403538425576	0
0	1784	581.530671896252	1
0	1787	581.905336991384	0
0	1794	583.449759838182	1
0	1795	584.2918978419	0
0	1802	585.852851820803	1
0	1803	586.538591315977	0
0	1813	590.635935728547	1
0	1819	592.489512267039	2
0	1821	593.146124704422	3
0	1822	594.591853023749	2
0	1828	595.335529399081	1
0	1833	597.474568204126	0
0	1893	616.508926831349	1
0	1897	618.043577175389	2
0	1898	621.676999103262	1
0	1904	622.860378196274	0
0	1910	623.438994189811	1
0	1911	623.663209077432	0
0	1930	634.808604536039	1
0	1931	636.16944190179	0
0	1945	639.157580221317	1
0	1946	640.444374539168	0
0	1952	640.528976670351	1
0	1953	641.558105246898	0
0	1973	647.355834749983	1
0	1974	647.939778036905	0
0	1983	650.505640955808	1
0	1985	651.514662174884	2
0	1986	651.717356948044	1
0	1991	652.008717281676	0
0	1998	653.3327949384	1
0	1999	654.018756857986	0
0	2025	663.708350898901	1
0	2030	664.329660270364	2
0	2033	665.55165204421	3
0	2034	669.866424804596	2
0	2040	674.964598787354	1
0	2046	678.012940917531	0
0	2052	678.157898175149	1
0	2055	679.258589772165	0
0	2074	684.760461988473	1
0	2076	687.364730733538	2
0	2077	688.277210868679	1
0	2083	690.622837169773	0
0	2101	696.939356157054	1
0	2103	697.113430732952	2
0	2105	697.391113582771	3
0	2107	697.469933638247	4
0	2108	698.161725998708	3
0	2115	698.885189949925	2
0	2121	699.625158048281	3
0	2124	701.177288961888	2
0	2133	702.579093876013	3
0	2136	703.974528156589	2
0	2146	710.139309108149	1
0	2151	710.244134416647	0
0	2161	713.824637316281	1
0	2165	714.848403010255	2
0	2166	715.685110281568	1
0	2171	717.078404582736	0
0	2175	717.245308961992	1
0	2178	721.976054716749	0
0	2182	722.018174363984	1
0	2186	729.136551462441	2
0	2188	730.736284832571	3
0	2191	732.357323955116	2
0	2196	734.686098060011	1
0	2200	740.402471928249	2
0	2204	742.14374738071	3
0	2206	743.570482872641	2
0	2211	743.892943676772	1
0	2220	746.604710598771	2
0	2223	749.289698366519	3
0	2225	749.536645428377	4
0	2228	750.597595575742	3
0	2234	753.565998509192	4
0	2239	754.758395137165	3
0	2247	756.438108892689	2
0	2252	757.294673912271	1
0	2258	758.822474511496	2
0	2260	759.5303363593	3
0	2262	759.908495717111	2
0	2268	760.377338120832	3
0	2272	761.89600546124	4
0	2274	763.001335831615	3
0	2281	764.907017116192	2
0	2286	765.781765485595	1
0	2290	766.748019052887	2
0	2293	768.231005258417	1
0	2297	770.256404825629	2
0	2299	771.839858042379	3
0	2303	773.281928839242	4
0	2305	775.65504079975	5
0	2308	776.770438114903	4
0	2312	777.064328324747	5
0	2318	780.087895672536	6
0	2320	780.371044892341	5
0	2326	781.998562372551	4
0	2335	783.580885997683	5
0	2336	784.688839040811	4
0	2342	784.812178795935	5
0	2345	788.807092857608	4
0	2352	790.367979716919	3
0	2358	793.024328075808	2
0	2363	794.109963020562	1
0	2368	795.577346508077	0
0	2372	796.619291683642	1
0	2378	798.165578416148	2
0	2380	799.119595590219	3
0	2381	799.565719412277	2
0	2390	803.51537459318	1
0	2396	804.393299395896	0
0	2408	806.990849471944	1
0	2409	808.50239038059	0
0	2425	813.551513166046	1
0	2426	816.295272569543	0
0	2437	818.749306217723	1
0	2439	819.021605830796	2
0	2442	821.754445648637	3
0	2446	825.466604518835	4
0	2447	826.543473096351	3
0	2453	826.572412243288	4
0	2454	827.202658189516	3
0	2460	827.406244965617	4
0	2463	830.431112742876	3
0	2469	830.486833127526	4
0	2471	833.350592717812	3
0	2477	834.780837537596	2
0	2483	835.548578064638	1
0	2488	837.163389305652	0
0	2496	838.975719889084	1
0	2497	839.096413030387	0
0	2510	843.310972528934	1
0	2511	843.777922059044	0
0	2539	848.07390176285	1
0	2541	848.313505017322	2
0	2544	850.894389815645	1
0	2549	852.069617404609	0
0	2573	859.559566436326	1
0	2579	861.499516651933	2
0	2581	863.380399197618	3
0	2583	866.175716894395	4
0	2584	867.673697822058	3
0	2591	870.642926642885	4
0	2592	871.576392145731	3
0	2598	873.128454308127	2
0	2604	874.620188684646	1
0	2609	875.220272122643	0
0	2630	883.998482492966	1
0	2631	884.483778725432	0
0	2638	885.841677728803	1
0	2639	886.281966345162	0
0	2681	902.771825522073	1
0	2686	908.240198702983	0
0	2692	908.377734680068	1
0	2694	909.098886044478	2
0	2696	911.139529191166	1
0	2703	912.422729086157	0
0	2709	913.370395346324	1
0	2713	916.828098294831	0
0	2727	921.778693634061	1
0	2731	922.229311165876	2
0	2732	927.10434022898	1
0	2740	928.462044760986	0
0	2753	930.20270881105	1
0	2755	930.75246086256	0
0	2761	931.169481729846	1
0	2763	932.12100892839	0
0	2791	939.664082526888	1
0	2795	941.001147654707	2
0	2796	941.250768949656	1
0	2803	944.958832409179	2
0	2804	946.033407121983	1
0	2809	946.763418943729	0
0	2820	949.075927750169	1
0	2822	952.650921116783	2
0	2826	952.769837298913	3
0	2827	952.97519976936	2
0	2835	955.149088650736	1
0	2841	956.739308910903	0
0	2858	958.898633667685	1
0	2863	961.083866110802	0
0	2870	962.923666140205	1
0	2873	964.100412890031	2
0	2875	965.391376783253	3
0	2876	966.728139940417	2
0	2885	971.810461434434	3
0	2887	973.162031563119	4
0	2889	973.216499180068	5
0	2890	974.424737760854	4
0	2897	978.954286493445	5
0	2898	979.684614155056	4
0	2904	980.061525889237	5
0	2906	982.01393911053	4
0	2911	982.773704753113	3
0	2916	983.254658263037	2
0	2924	986.208768605228	3
0	2925	987.176063556015	2
0	2931	987.285041194031	3
0	2932	988.042315197857	2
0	2937	988.247884283661	1
0	2941	990.821201663003	2
0	2944	993.036651809466	1
0	2950	993.215618537914	2
0	2952	993.707331404019	1
0	2956	994.027853647986	2
0	2962	995.585081062909	3
0	2967	997.584609681767	2
0	2972	1001.962795527947	1
0	2976	1002.709717877722	2
0	2979	1006.750357743322	1
0	2985	1008.361923467572	0
0	3003	1011.699265043844	1
0	3008	1013.735967070018	0
0	3014	1014.575769459855	1
0	3017	1015.529668978654	2
0	3019	1018.989827797622	1
0	3025	1020.963612544549	0
0	3038	1025.230713851129	1
0	3039	1025.290971707715	0
0	3054	1029.045172841712	1
0	3056	1030.811884158711	2
0	3059	1035.771304292709	1
0	3064	1036.618887455678	0
0	3070	1036.799929936991	1
0	3076	1043.953555848482	0
0	3082	1043.965399295559	1
0	3088	1047.381229433567	2
0	3089	1049.55820798612	1
0	3094	1050.153142853919	0
0	3100	1050.317844050175	1
0	3101	1050.350248730616	0
0	3141	1061.622560274019	1
0	3142	1062.166783705251	0
0	3157	1067.263727292815	1
0	3159	1067.490072691213	2
0	3161	1068.0109784538	3
0	3164	1069.283474954079	2
0	3170	1070.731207984309	1
0	3176	1072.23996340037	2
0	3178	1072.497296318689	1
0	3183	1072.543035159225	0
0	3189	1072.888444509746	1
0	3192	1075.362207778862	2
0	3193	1076.109272842845	1
0	3198	1076.598526910921	0
0	3211	1083.154521516811	1
0	3212	1086.322241104244	0
0	3229	1092.560892377972	1
0	3231	1092.822718030866	2
0	3232	1093.555671961376	1
0	3237	1094.482803602263	0
0	3255	1102.785003002036	1
0	3257	1104.688934546392	2
0	3259	1107.476941254733	3
0	3262	1113.026629605132	2
0	3267	1113.279730412983	1
0	3274	1115.90258610447	0
0	3291	1121.127855112713	1
0	3294	1123.456704953493	0
0	3300	1123.880356099158	1
0	3301	1125.923306112806	0
0	3322	1128.824120812019	1
0	3326	1133.457440849757	2
0	3328	1133.525962626498	3
0	3329	1133.652580467305	2
0	3339	1140.363546618855	1
0	3345	1141.236528024705	0
0	3359	1145.625075556577	1
0	3360	1145.782515348312	0
0	3369	1146.053337968949	1
0	3373	1151.803410572488	0
0	3399	1166.584779368768	1
0	3402	1167.168804690408	0
0	3409	1167.562464490785	1
0	3412	1170.243167662485	0
0	3428	1174.103975062371	1
0	3429	1174.727378416546	0
0	3435	1175.172643850588	1
0	3437	1175.916074940836	2
0	3438	1177.375994068698	1
0	3449	1181.876187764129	2
0	3451	1182.368105777978	3
0	3453	1182.5767702446	4
0	3454	1185.33382348203	3
0	3459	1187.439820656286	2
0	3464	1187.458365031209	1
0	3469	1187.78607461237	0
0	3478	1191.607466554666	1
0	3481	1195.225680722065	2
0	3488	1198.983815354099	1
0	3493	1199.08143787325	0
0	3499	1199.404964793738	1
0	3501	1199.895849410426	0
0	3509	1201.700097540418	1
0	3511	1202.137513618682	2
0	3513	1202.714935490398	3
0	3516	1205.434488328115	2
0	3526	1212.772358476573	3
0	3527	1215.185990069682	2
0	3534	1216.236506124366	3
0	3537	1217.848383197886	2
0	3542	1217.999152266291	1
0	3547	1218.172198692439	0
0	3551	1218.99911598804	1
0	3553	1219.586998779989	2
0	3558	1227.62865133658	1
0	3562	1228.238117512692	2
0	3564	1228.288248700156	3
0	3566	1229.344270932695	4
0	3569	1229.859607837136	3
0	3574	1230.858132601837	2
0	3579	1231.224380290855	1
0	3584	1231.723371627067	0
0	3588	1232.196078760199	1
0	3592	1234.580554672763	2
0	3594	1235.547084777137	1
0	3606	1237.923205896793	2
0	3607	1240.412476268592	1
0	3616	1242.417686178076	2
0	3619	1245.075150739531	1
0	3624	1247.297013984978	0
0	3640	1249.823734557253	1
0	3643	1251.566855930552	0
0	3649	1253.102915174761	1
0	3650	1253.797580449203	0
0	3664	1259.610240121677	1
0	3665	1259.940498488666	0
0	3682	1268.735276202305	1
0	3684	1269.731442087568	2
0	3685	1270.076276555497	1
0	3690	1272.729574785858	0
0	3709	1281.685673350152	1
0	3710	1281.819913411741	0
0	3716	1282.316931393232	1
0	3719	1284.792367265407	0
0	3726	1285.989900745661	1
0	3727	1289.172653503936	0
0	3738	1292.596775370348	1
0	3744	1296.247955173814	2
0	3745	1297.82685473943	1
0	3755	1300.496908111178	2
0	3756	1300.527028008001	1
0	3761	1300.553046995915	0
0	3776	1302.280853297764	1
0	3777	1302.341937340473	0
0	3783	1302.450278693698	1
0	3784	1303.07903975344	0
0	3805	1308.985548409906	1
0	3807	1309.355816222502	2
0	3812	1310.336566508053	1
0	3816	1310.63525347555	2
0	3819	1312.751377899645	1
0	3825	1314.938724336166	0
0	3834	1318.689292501639	1
0	3836	1319.904526651069	0
0	3842	1320.040263997731	1
0	3843	1320.466476090916	0
0	3877	1332.354722817353	1
0	3879	1333.679447216193	2
0	3882	1333.968654742304	1
0	3888	1339.574531270838	0
0	3902	1343.457917798276	1
0	3907	1345.402216737788	0
0	3913	1345.526374754909	1
0	3919	1351.314131899648	0
0	3926	1355.117289733051	1
0	3928	1355.544773146542	2
0	3929	1355.549794296634	1
0	3935	1357.177736859275	2
0	3937	1358.507518032452	1
0	3942	1359.129933239438	0
0	3948	1359.24065950571	1
0	3950	1359.267154942145	2
0	3952	1359.7281261651	3
0	3955	1361.540353662441	2
0	3962	1364.373488207714	3
0	3963	1367.026783293804	2
0	3973	1369.064630682108	1
0	3978	1369.263413212658	0
0	4003	1376.783518031397	1
0	4004	1377.119288331969	0
0	4023	1382.823611353182	1
0	4024	1383.463303064297	0
0	4044	1388.242278474799	1
0	4045	1388.960889860312	0
0	4051	1388.966413409578	1
0	4052	1389.917421153689	0
0	4089	1401.611360292245	1
0	4090	1402.983536332864	0
0	4099	1404.275248549387	1
0	4100	1404.476572393036	0
0	4107	1405.078008897188	1
0	4109	1405.280126878562	2
0	4111	1405.397621716066	3
0	4112	1406.24330657276	2
0	4119	1408.357392805928	3
0	4121	1412.979005407538	2
0	4126	1412.988680881216	1
0	4133	1414.461199633388	0
0	4139	1415.251722846627	1
0	4140	1415.887693413874	0
0	4151	1419.786369872229	1
0	4153	1420.370323968786	2
0	4157	1421.348437896156	3
0	4160	1423.662625875482	2
0	4165	1424.018242298566	1
0	4171	1426.347618188361	2
0	4175	1428.466307890084	3
0	4176	1429.670007924886	2
0	4186	1439.271089485567	3
0	4187	1439.53210920039	2
0	4192	1439.73571883876	1
0	4197	1439.991543408993	0
0	4201	1442.818304592881	1
0	4208	1445.832819784319	0
0	4212	1446.340555330738	1
0	4218	1448.116304122007	2
0	4219	1450.46383493866	1
0	4223	1451.244618796394	2
0	4225	1451.301545348864	3
0	4229	1452.607247224333	4
0	4232	1453.77714095155	3
0	4239	1455.839748540269	2
0	4244	1456.820780585739	1
0	4248	1456.847368286329	2
0	4251	1457.207198591881	1
0	4256	1458.272512816899	0
0	4260	1458.416033000576	1
0	4262	1459.893865226214	2
0	4264	1460.028562175372	3
0	4268	1460.744384980753	4
0	4270	1462.227297079603	3
0	4277	1463.338381144188	4
0	4280	1464.183920873741	3
0	4285	1465.017035605595	2
0	4290	1466.536819538455	1
0	4294	1466.897930124575	2
0	4300	1469.327078296814	1
0	4307	1472.640366819847	0
0	4313	1472.824983709351	1
0	4314	1473.475525539983	0
0	4338	1478.130403550285	1
0	4340	1478.809606715754	2
0	4348	1489.085827487766	1
0	4356	1492.662257045126	2
0	4358	1493.827319016069	1
0	4364	1495.095835824662	0
0	4370	1495.531701996665	1
0	4373	1497.40181310006	0
0	4409	1510.324742011486	1
0	4410	1511.367698519358	0
0	4419	1514.421673269366	1
0	4422	1515.167215659633	0
0	4431	1515.846836676857	1
0	4436	1516.590475588355	0
0	4445	1518.376996562218	1
0	4450	1520.749142723256	2
0	4452	1520.864220343757	3
0	4456	1523.028977844702	2
0	4462	1528.987257583995	1
0	4474	1532.299005743661	2
0	4475	1533.069305489633	1
0	4481	1534.481525492094	2
0	4482	1535.386039778599	1
0	4488	1536.745834864882	2
0	4489	1537.438727990542	1
0	4496	1539.855288887698	2
0	4498	1540.961130219813	3
0	4501	1541.480718822033	2
0	4509	1542.095601640727	3
0	4511	1542.606702421932	4
0	4515	1544.394733804374	5
0	4516	1545.192640195472	4
0	4521	1545.315718975584	3
0	4530	1551.51829562463	4
0	4531	1551.930305637786	3
0	4537	1553.122296762291	2
0	4545	1555.756397858889	3
0	4547	1555.915409334143	4
0	4548	1556.733763326652	3
0	4553	1558.467834508783	2
0	4564	1562.406244114162	1
0	4569	1564.502929373416	0
0	4576	1567.195018199006	1
0	4578	1571.361543511363	2
0	4580	1572.495691375563	3
0	4582	1572.876974180258	4
0	4586	1574.843856805284	5
0	4587	1575.125453533407	4
0	4596	1576.535529510926	3
0	4601	1577.736024605981	2
0	4606	1578.753251264203	1
0	4613	1580.03462899397	0
0	4620	1585.17262883222	1
0	4621	1589.365463175317	0
0	4639	1591.998711965143	1
0	4644	1594.191354171848	2
0	4646	1595.30215526441	3
0	4647	1595.636092695157	2
0	4654	1597.232789430624	3
0	4657	1601.906277263343	2
0	4663	1602.132446660495	3
0	4665	1604.758499561965	2
0	4670	1605.454955827844	1
0	4679	1608.739563655353	0
0	4701	1612.61071328229	1
0	4702	1615.277495550102	0
0	4708	1615.691923174914	1
0	4710	1616.42440937924	0
0	4719	1618.288003492852	1
0	4723	1622.128544090969	0
0	4739	1625.405476650236	1
0	4740	1626.964410091165	0
0	4754	1630.978605711062	1
0	4758	1634.104073733248	2
0	4759	1634.380602792026	1
0	4766	1638.048760128279	2
0	4768	1638.998601344783	3
0	4769	1640.478072482955	2
0	4774	1641.244596155082	1
0	4782	1645.097716340604	0
0	4788	1646.067072383075	1
0	4790	1647.599434679562	0
0	4808	1649.345438636373	1
0	4813	1654.344230104063	0
0	4822	1656.04860697101	1
0	4824	1657.028000182069	2
0	4830	1660.29050648604	3
0	4832	1660.568944014303	4
0	4834	1660.797417107943	5
0	4837	1662.21811190838	6
0	4838	1662.753540943416	5
0	4844	1663.747844475038	4
0	4850	1666.893684936869	5
0	4852	1667.028185430947	6
0	4855	1667.520054074404	7
0	4856	1667.683096722734	6
0	4861	1668.456945005827	5
0	4867	1669.576606590151	4
0	4872	1675.384955705987	3
0	4879	1677.181315173655	2
0	4887	1680.170593048593	1
0	4892	1680.239260684389	0
0	4896	1681.056803730103	1
0	4901	1682.449832772553	0
0	4908	1684.553141020753	1
0	4909	1685.581227121894	0
0	4926	1689.593004983264	1
0	4927	1689.760696774193	0
0	4936	1690.757647264313	1
0	4941	1692.386444801546	0
0	4954	1694.155795255133	1
0	4955	1694.33963748579	0
0	5008	1716.477541363613	1
0	5009	1717.525852937021	0
0	5023	1719.405891113605	1
0	5029	1721.845784711013	2
0	5031	1722.817763897705	1
0	5038	1722.952046426537	0
0	5049	1728.987833011807	1
0	5052	1736.697507774795	0
0	5059	1736.852749410088	1
0	5060	1739.227504102423	0
0	5079	1747.542946985741	1
0	5081	1748.889996105754	2
0	5085	1751.27549128448	3
0	5086	1754.8766180752	2
0	5091	1755.691063582472	1
0	5100	1761.141145678057	0
0	5116	1769.137277719864	1
0	5117	1769.351903169517	0
0	5124	1770.719402002133	1
0	5126	1772.07953586808	0
0	5133	1773.934730906511	1
0	5135	1775.063386021825	2
0	5137	1778.099513968571	3
0	5138	1778.427212429283	2
0	5146	1779.485138982228	1
0	5152	1780.454285186948	2
0	5153	1782.650265874853	1
0	5157	1784.914760518988	2
0	5160	1785.313764726	1
0	5167	1786.128043149097	0
0	5192	1791.52721551175	1
0	5195	1793.109119411049	0
0	5213	1798.916620083267	1
0	5215	1800.274061269067	0
0	5244	1815.839654766032	1
0	5246	1818.281275490054	2
0	5252	1822.1152293933	3
0	5254	1822.258655522856	4
0	5256	1825.354701061536	3
0	5262	1825.51396557145	4
0	5265	1827.576494117549	3
0	5271	1827.712544990198	2
0	5277	1827.786027911061	3
0	5279	1829.622494889337	2
0	5284	1830.965486245409	1
0	5290	1832.462357578755	0
0	5305	1834.166825979846	1
0	5307	1835.14159699144	0
0	5332	1839.021140294509	1
0	5335	1843.24401488163	0
0	5341	1844.470597383623	1
0	5342	1845.274085520598	0
0	5348	1846.236882231486	1
0	5351	1850.605937256669	0
0	5366	1861.621701533921	1
0	5368	1862.09886816472	2
0	5370	1862.139203752577	3
0	5372	1863.150994999794	4
0	5374	1865.216517387697	5
0	5379	1868.329503551772	4
0	5387	1872.090382539629	3
0	5393	1873.141452547972	2
0	5400	1875.252291972129	3
0	5402	1875.823146306704	2
0	5408	1876.463551519492	3
0	5410	1877.812129702945	2
0	5415	1878.856630227547	1
0	5420	1878.951388229435	0
0	5426	1880.110394740444	1
0	5427	1880.505127270801	0
0	5445	1889.997262440276	1
0	5447	1894.308311727917	2
0	5449	1895.084574229736	3
0	5455	1899.765904999372	4
0	5459	1900.17235589308	5
0	5460	1901.680727777888	4
0	5466	1902.837308720114	5
0	5472	1905.399157049899	4
0	5478	1905.470611846812	5
0	5479	1905.618039951011	4
0	5484	1905.694152739084	3
0	5489	1906.65468853278	2
0	5500	1913.343982423111	3
0	5504	1916.746487555143	4
0	5508	1919.296234748388	5
0	5509	1920.991818356263	4
0	5515	1922.188217245901	5
0	5516	1922.347090530894	4
0	5522	1923.446074057195	5
0	5528	1925.977540068952	6
0	5530	1926.270038647989	7
0	5531	1927.511817706082	6
0	5538	1930.831716667953	7
0	5539	1931.580198799476	6
0	5545	1932.44274793345	7
0	5546	1933.970515098483	6
0	5551	1936.001344638109	5
0	5558	1940.623946872103	6
0	5560	1940.810182388262	7
0	5561	1940.986452397895	6
0	5568	1942.356860527825	7
0	5571	1942.436596817034	8
0	5574	1944.612960296364	7
0	5581	1946.543443936104	8
0	5585	1948.124835175199	9
0	5587	1950.451105557005	10
0	5588	1950.486534634572	9
0	5593	1950.97242630364	8
0	5600	1951.428015713032	7
0	5604	1954.579720950209	8
0	5609	1955.722710167898	9
0	5611	1955.730879055573	10
0	5613	1956.249944386721	11
0	5615	1956.873173336231	12
0	5617	1956.877806835028	13
0	5619	1957.088604163228	14
0	5620	1957.136148932466	13
0	5628	1960.756723782897	14
0	5630	1962.038631141197	15
0	5632	1962.074310060906	16
0	5633	1964.913927809296	15
0	5639	1965.058978558637	16
0	5643	1965.406674779663	17
0	5644	1966.033892912247	16
0	5649	1966.358511221736	15
0	5653	1966.848899425324	16
0	5657	1967.065512611171	17
0	5659	1970.063664036491	18
0	5661	1970.573441643858	19
0	5662	1971.164905931952	18
0	5668	1977.169071446933	17
0	5673	1977.419849983255	16
0	5678	1979.934377920229	15
0	5688	1986.072655015391	16
0	5689	1991.103224458991	15
0	5694	1992.557455419168	14
0	5700	1994.110937051414	15
0	5701	1995.105882275418	14
0	5706	1998.84726435817	13
0	5712	2000.910570600921	12
0	5722	2002.671276555098	13
0	5723	2005.138657941632	12
0	5728	2007.586953895624	11
0	5734	2007.994382577584	12
0	5735	2007.998570402609	11
0	5740	2008.972797013168	10
0	5745	2010.293589057514	9
0	5752	2011.468906108837	8
0	5757	2011.860160754642	7
0	5764	2012.540334097509	6
0	5770	2014.247357234297	7
0	5773	2014.746816200598	6
0	5780	2017.853605328406	5
0	5784	2018.516349513973	6
0	5787	2019.480249817612	5
0	5791	2019.619195754068	6
0	5794	2020.351779821507	5
0	5799	2021.57410401226	4
0	5803	2023.699801798711	5
0	5809	2027.660272116617	4
0	5814	2028.85517035368	3
0	5821	2030.502546742039	2
0	5828	2034.400841637299	1
0	5834	2035.199858671711	2
0	5835	2036.083046469916	1
0	5841	2037.023554927204	2
0	5842	2037.741559324137	1
0	5850	2038.412018658451	2
0	5852	2038.653463685043	3
0	5855	2039.855826435472	2
0	5861	2041.633280948814	1
0	5866	2042.218213365662	0
0	5877	2042.662023244907	1
0	5880	2043.60589026986	2
0	5881	2043.846148520529	1
0	5887	2044.014650106969	2
0	5895	2046.419856711992	3
0	5896	2048.752778022868	2
0	5902	2050.401741494191	1
0	5907	2050.80177973049	0
0	5942	2060.272560399405	1
0	5945	2061.559739554359	0
0	5952	2062.613207333603	1
0	5953	2063.059358132211	0
0	5987	2080.62545463952	1
0	5988	2083.514761611982	0
0	6002	2088.17727124422	1
0	6007	2092.48221147176	0
0	6014	2093.671580445499	1
0	6016	2095.235494008449	0
0	6037	2102.329194497216	1
0	6038	2102.751271638291	0
0	6057	2108.307081135362	1
0	6062	2109.777432868441	0
0	6071	2109.96900374209	1
0	6074	2111.326826808468	0
0	6084	2113.845249348003	1
0	6085	2113.997560643165	0
0	6091	2115.507795634759	1
0	6092	2116.781577549619	0
0	6100	2118.910417451087	1
0	6101	2120.11078292576	0
0	6107	2120.521551733024	1
0	6108	2121.198740798414	0
0	6114	2121.37543162667	1
0	6119	2123.757394255774	2
0	6120	2124.81798998882	1
0	6126	2126.741474802065	2
0	6127	2126.745432781132	1
0	6131	2129.2035728559	2
0	6136	2132.578319011322	1
0	6142	2133.03378136047	0
0	6158	2136.456535761176	1
0	6160	2136.630437305607	2
0	6162	2142.069379168575	3
0	6166	2146.837608494458	4
0	6167	2147.282317294156	3
0	6174	2150.184236725016	4
0	6179	2152.382137915615	3
0	6185	2155.50018440419	2
0	6191	2157.236611075168	1
0	6196	2158.755691293248	0
0	6239	2168.458563889333	1
0	6244	2172.79215281355	0
0	6260	2181.293269791435	1
0	6261	2182.513611469102	0
0	6268	2185.550311959041	1
0	6269	2186.593903283451	0
0	6285	2189.153952020582	1
0	6288	2191.374416027478	0
0	6302	2195.377053380447	1
0	6304	2197.675252189189	0
0	6319	2201.078707913574	1
0	6320	2201.672106753422	0
0	6327	2204.891774066915	1
0	6328	2205.810789221883	0
0	6334	2206.363602311523	1
0	6336	2207.220973096533	0
0	6343	2208.919242196103	1
0	6346	2211.172879915654	0
0	6365	2216.463530492597	1
0	6366	2217.661162857072	0
0	6375	2218.363233421793	1
0	6377	2220.997025125797	2
0	6383	2223.188447482398	3
0	6384	2223.370098233255	2
0	6389	2224.087425906907	1
0	6398	2225.312481231788	2
0	6401	2225.922102833486	3
0	6402	2226.941450632676	2
0	6408	2227.767099883182	1
0	6414	2228.040071991337	2
0	6415	2229.283741389104	1
0	6421	2230.036747265984	0
0	6430	2232.553166137465	1
0	6434	2233.032395532309	2
0	6435	2233.818236624599	1
0	6444	2235.057761599478	2
0	6446	2236.843607307232	1
0	6452	2237.836635446318	0
0	6458	2238.097175672473	1
0	6460	2238.511416550569	2
0	6462	2240.99727323583	1
0	6468	2242.112803403176	0
0	6504	2248.949187614418	1
0	6509	2254.710223171451	0
0	6528	2272.300381432098	1
0	6536	2278.91455543216	2
0	6538	2282.019770297237	3
0	6539	2282.110093590618	2
0	6547	2286.629187317996	1
0	6555	2289.863732809708	0
0	6561	2290.595880731581	1
0	6563	2290.631741317455	2
0	6565	2291.516254804411	1
0	6572	2297.338479921046	0
0	6586	2298.916677515327	1
0	6592	2302.050109322123	0
0	6599	2303.802445410375	1
0	6600	2305.605876975836	0
0	6614	2308.927830734968	1
0	6615	2309.132414735954	0
0	6621	2309.755618700519	1
0	6623	2309.96405943235	2
0	6624	2310.175358371582	1
0	6632	2312.444255981314	2
0	6633	2315.620355641077	1
0	6639	2318.303960291559	0
0	6666	2321.421062908606	1
0	6671	2323.763859155543	0
0	6678	2324.01150773746	1
0	6680	2325.352161105532	2
0	6681	2325.519828296859	1
0	6687	2325.608334192837	2
0	6689	2326.35092928362	3
0	6692	2329.278013430234	4
0	6693	2330.040715808216	3
0	6699	2331.153836132336	2
0	6705	2331.255611996532	3
0	6706	2331.988577619001	2
0	6713	2333.593154626234	1
0	6720	2334.54620018836	2
0	6722	2340.449008293205	1
0	6728	2341.507293675874	0
0	6734	2341.633298398728	1
0	6735	2342.275361333154	0
0	6742	2343.087489568718	1
0	6744	2344.584359633328	0
0	6776	2352.273221392519	1
0	6780	2357.028364515873	2
0	6783	2357.596331578037	1
0	6788	2357.968042223971	0
0	6794	2358.293941298534	1
0	6799	2359.157013927976	2
0	6801	2359.786744568581	1
0	6808	2361.31023613694	0
0	6839	2370.314043865012	1
0	6841	2372.141996403492	2
0	6843	2374.566768119016	3
0	6844	2376.073982960701	2
0	6850	2376.818154479911	1
0	6857	2377.495876760242	0
0	6865	2381.203699076128	1
0	6866	2381.409787940252	0
0	6873	2382.557708673408	1
0	6874	2383.316146043899	0
0	6881	2384.709226907582	1
0	6882	2384.927670914785	0
0	6888	2385.667349165321	1
0	6892	2386.56826925129	0
0	6898	2387.792729526666	1
0	6900	2390.338676980075	0
0	6906	2392.19207639523	1
0	6910	2392.634495490085	2
0	6911	2392.912091508954	1
0	6920	2393.700858846479	2
0	6924	2398.51087589525	3
0	6925	2400.11166204536	2
0	6930	2400.854599147128	1
0	6938	2404.06313348218	0
0	6955	2406.527484528916	1
0	6962	2407.712810175863	2
0	6964	2409.318032508219	3
0	6966	2409.442282614038	4
0	6967	2409.614674244572	3
0	6972	2409.624193176632	2
0	6980	2411.86482504535	1
0	6987	2413.772386311819	0
0	6993	2414.036929855867	1
0	6995	2414.15029393914	2
0	6996	2415.447190596122	1
0	7001	2416.758020547148	0
0	7012	2418.36401524222	1
0	7016	2422.673144093891	2
0	7020	2426.081962437166	3
0	7021	2427.821684805184	2
0	7027	2429.054767756887	3
0	7028	2429.264220863491	2
0	7033	2429.637648035254	1
0	7039	2433.251766161981	2
0	7041	2434.37789330295	3
0	7043	2435.237007104062	4
0	7053	2442.287361756718	5
0	7054	2442.928189679904	4
0	7059	2444.411948809221	3
0	7065	2445.716248472977	4
0	7066	2446.353704091263	3
0	7072	2447.537725856957	4
0	7077	2450.215975051386	3
0	7083	2451.763768730404	4
0	7086	2453.58042758663	3
0	7095	2459.383349104998	2
0	7101	2460.500865069148	3
0	7102	2461.152864002468	2
0	7109	2462.729322091561	3
0	7110	2463.953926399713	2
0	7115	2464.740801255417	1
0	7124	2468.257037664752	0
0	7135	2469.813860062309	1
0	7139	2471.987480708871	2
0	7141	2472.348561106777	3
0	7143	2475.770371461564	4
0	7145	2476.738063594398	5
0	7147	2476.769170757938	6
0	7148	2480.670190473308	5
0	7154	2484.510810948215	6
0	7155	2485.778308526517	5
0	7162	2487.479517495265	6
0	7164	2487.559270321494	7
0	7166	2489.804283496072	6
0	7172	2489.992590015734	5
0	7178	2490.803471638195	6
0	7184	2495.869965197905	5
0	7189	2496.936635991107	4
0	7196	2498.818321591357	3
0	7201	2499.776010223577	2
0	7211	2501.962222523453	1
0	7217	2502.078983576356	2
0	7218	2506.641475843618	1
0	7224	2509.56533843286	2
0	7227	2510.625793023407	1
0	7231	2512.030843006177	2
0	7236	2513.291736021438	3
0	7237	2513.315431703031	2
0	7248	2516.173025980505	1
0	7254	2516.71476814539	0
0	7270	2520.07060588374	1
0	7272	2520.384996533076	2
0	7273	2520.828903018341	1
0	7279	2520.902097370959	2
0	7281	2520.977018484003	3
0	7284	2521.515991775094	2
0	7292	2522.971242640539	3
0	7293	2524.906817323282	2
0	7300	2526.16400189662	3
0	7301	2526.894973768715	2
0	7306	2527.226786004368	1
0	7310	2527.487365940712	2
0	7315	2529.46562860572	3
0	7317	2529.883866669075	4
0	7319	2530.262867760539	3
0	7324	2530.555886238001	2
0	7329	2530.769299074491	1
0	7340	2536.410800068856	0
0	7344	2539.067834168521	1
0	7347	2539.372669345743	0
0	7353	2541.613832931565	1
0	7354	2542.616050605552	0
0	7358	2543.683897445985	1
0	7360	2546.829895910718	2
0	7366	2547.876747052908	1
0	7371	2548.592820261455	0
0	7393	2553.306969651418	1
0	7395	2554.254841873014	2
0	7396	2554.394568051905	1
0	7402	2555.775505007785	0
0	7410	2560.669314062014	1
0	7412	2561.013336853124	2
0	7413	2561.280881784496	1
0	7420	2563.637433105117	0
0	7427	2563.747585026975	1
0	7435	2567.756732777368	2
0	7437	2567.958182617855	3
0	7438	2570.984208492204	2
0	7443	2572.115557012274	1
0	7450	2572.372613083871	2
0	7451	2572.662740433522	1
0	7456	2573.01061166419	0
0	7474	2576.455877347398	1
0	7476	2577.001876537502	2
0	7478	2578.30728819734	3
0	7479	2579.01083235768	2
0	7484	2579.433001859779	1
0	7489	2580.696677946576	0
0	7503	2583.090928651458	1
0	7506	2584.072676059616	0
0	7516	2586.950509878032	1
0	7518	2589.21375129458	2
0	7522	2590.447887200294	1
0	7530	2590.742432320565	0
0	7538	2592.233449281009	1
0	7539	2592.471176080396	0
0	7556	2594.771815959018	1
0	7557	2596.878862485091	0
0	7564	2599.789159230641	1
0	7565	2603.393052259979	0
0	7572	2605.378695648637	1
0	7573	2606.414259386208	0
0	7586	2610.38972618561	1
0	7589	2614.562597367373	0
0	7599	2617.578007908101	1
0	7600	2620.340103470305	0
0	7618	2625.195204265232	1
0	7620	2627.835584699342	2
0	7624	2630.793779158259	3
0	7625	2631.860634681847	2
0	7631	2632.260140086509	3
0	7632	2633.403671466246	2
0	7638	2633.815918128493	3
0	7639	2635.199717382146	2
0	7644	2637.113020527623	1
0	7652	2642.820671382467	0
0	7689	2656.660547866268	1
0	7690	2657.068171255875	0
0	7701	2663.794262015288	1
0	7702	2664.318228710309	0
0	7711	2666.102216622258	1
0	7713	2666.356965667611	2
0	7715	2668.884162778964	3
0	7722	2675.442443449827	2
0	7728	2675.749601417821	3
0	7732	2679.966859697755	2
0	7739	2680.537437281334	3
0	7741	2682.617535376046	2
0	7748	2685.679766077549	1
0	7758	2689.809941919851	0
0	7772	2691.583734383515	1
0	7775	2692.88784276393	0
0	7792	2698.90180299174	1
0	7795	2699.141845314404	0
0	7806	2700.343298591566	1
0	7813	2701.566562475871	2
0	7816	2703.55945692184	1
0	7824	2705.509895463358	2
0	7826	2706.120925304687	3
0	7827	2706.635878141871	2
0	7834	2707.251039545826	3
0	7838	2710.699643311606	4
0	7839	2711.866571573621	3
0	7847	2712.854300193212	4
0	7848	2714.968407754236	3
0	7853	2716.525125652838	2
0	7860	2720.848235356944	1
0	7865	2721.130434103274	0
0	7883	2723.265227850203	1
0	7884	2726.048878188311	0
0	7903	2728.370145483682	1
0	7907	2730.894847361713	0
0	7930	2742.823304037911	1
0	7934	2746.0940483977	2
0	7935	2748.432908523935	1
0	7945	2754.158023595839	0
0	7954	2755.067263121201	1
0	7956	2756.869696241187	2
0	7962	2759.72040641579	1
0	7968	2762.017382487166	2
0	7971	2765.031353784763	1
0	7977	2765.985459378195	0
0	7983	2766.191569591637	1
0	7988	2768.410991973772	0
0	8020	2776.302634445719	1
0	8023	2778.570684710352	0
0	8030	2779.535100836205	1
0	8035	2784.687841885978	2
0	8037	2786.182050575861	3
0	8038	2786.907257810249	2
0	8043	2788.960796900233	1
0	8049	2789.440146325921	2
0	8052	2791.003019295023	3
0	8053	2791.852166051154	2
0	8060	2793.317304346104	3
0	8062	2794.452275161771	2
0	8068	2795.895651935252	1
0	8075	2797.777071197208	2
0	8077	2798.059078838748	3
0	8079	2798.163808591456	4
0	8080	2799.140110841892	3
0	8087	2801.486499285844	2
0	8092	2802.296006927854	1
0	8098	2805.014352356767	2
0	8107	2812.72237530955	1
0	8117	2814.98723461317	2
0	8118	2815.418379957939	1
0	8125	2818.080903714667	0
0	8131	2818.689620394191	1
0	8134	2819.60169928597	2
0	8136	2819.625621197821	3
0	8139	2820.112376122003	4
0	8140	2822.855900556528	3
0	8147	2823.427951815078	4
0	8149	2823.503502649324	5
0	8152	2825.359508523724	4
0	8157	2825.398728102941	3
0	8162	2825.589760137754	2
0	8168	2828.954245845192	3
0	8170	2829.501887357456	4
0	8172	2829.65703328261	5
0	8175	2833.467426572787	4
0	8184	2836.859687600484	3
0	8192	2837.680640944504	4
0	8196	2838.342415165016	3
0	8203	2839.990990436472	4
0	8204	2841.330249130312	3
0	8212	2842.997369769308	2
0	8219	2845.807572653517	1
0	8229	2851.970583387517	0
0	8256	2860.666072914265	1
0	8263	2862.567246756927	2
0	8264	2863.084781138603	1
0	8271	2864.168111174043	2
0	8272	2864.726232751709	1
0	8280	2866.010651248782	0
0	8302	2880.350356050373	1
0	8303	2881.209830077547	0
0	8318	2884.387350782654	1
0	8320	2887.766136763069	2
0	8325	2888.766107835996	1
0	8331	2891.310913762587	0
0	8344	2893.621772930154	1
0	8347	2894.039254024961	0
0	8362	2897.104485288956	1
0	8366	2897.381492275465	2
0	8369	2898.226628423328	1
0	8375	2899.421901163773	2
0	8377	2899.479028873056	3
0	8378	2901.349966121492	2
0	8387	2903.185746588382	1
0	8395	2904.609538164864	0
0	8410	2907.434756043395	1
0	8411	2907.487146653982	0
0	8444	2917.095119971242	1
0	8452	2927.148959337831	2
0	8454	2927.841330122625	3
0	8455	2928.07394692369	2
0	8461	2928.714884463166	3
0	8464	2929.527887155108	4
0	8465	2930.016005861652	3
0	8471	2930.153629274373	2
0	8477	2933.893702503373	3
0	8480	2934.2632106107	4
0	8483	2935.22404790636	5
0	8484	2935.737277839834	4
0	8489	2935.743833398668	3
0	8497	2936.985385970194	4
0	8501	2937.900088855944	5
0	8504	2940.395735607443	6
0	8506	2941.951246695143	7
0	8509	2947.072722072224	6
0	8514	2947.605753803682	5
0	8519	2948.904894929395	4
0	8524	2951.490429842078	3
0	8528	2952.25657766203	4
0	8532	2953.633542142142	3
0	8539	2957.117976625428	2
0	8549	2964.134248170209	3
0	8551	2965.28238270723	4
0	8552	2965.575827595596	3
0	8558	2967.448090506968	2
0	8563	2967.597044334653	1
0	8569	2968.726712724354	0
0	8611	2981.084150506	1
0	8613	2983.872047628344	2
0	8615	2985.578439804671	3
0	8616	2985.927417953796	2
0	8622	2986.160526416949	3
0	8624	2986.548138421603	4
0	8625	2986.768518371196	3
0	8635	2991.14264710478	2
0	8641	2991.432431857133	1
0	8646	2992.063293567104	0
0	8652	2993.043009752407	1
0	8658	2996.701119714902	2
0	8659	2997.318274597054	1
0	8668	3001.771561251701	2
0	8669	3002.047392582564	1
0	8674	3002.548887442888	0
0	8701	3014.951879096599	1
0	8703	3017.257474001043	2
0	8708	3019.506153206915	1
0	8712	3020.326318162256	2
0	8714	3021.766088792556	3
0	8721	3022.456636090631	2
0	8725	3024.694332952341	3
0	8727	3025.395832361799	4
0	8733	3029.2410148774	5
0	8734	3030.00388600679	4
0	8740	3031.970231242613	5
0	8745	3038.342271344988	4
0	8749	3038.987686652637	5
0	8755	3043.254382835635	4
0	8762	3044.556656504942	5
0	8763	3045.645364866107	4
0	8768	3047.910357110698	3
0	8777	3050.278895481127	2
0	8783	3051.119497202843	1
0	8788	3051.510737387008	0
0	8806	3054.970739867715	1
0	8807	3057.412180258515	0
0	8826	3061.013219092853	1
0	8827	3064.19385284169	0
0	8841	3068.226636451457	1
0	8842	3068.315014905007	0
0	8853	3070.096915070994	1
0	8860	3072.60472086089	2
0	8861	3072.645748247919	1
0	8867	3072.765914008011	2
0	8874	3084.630930808382	3
0	8876	3084.708416582009	4
0	8878	3086.510923487625	5
0	8882	3088.851863143782	6
0	8883	3088.951267892449	5
0	8893	3093.102097221959	4
0	8902	3096.556987123507	5
0	8904	3099.665257902506	6
0	8905	3100.37490154369	5
0	8912	3101.974036160591	6
0	8913	3102.850571120501	5
0	8919	3103.95595277661	6
0	8921	3106.159597465981	7
0	8922	3106.189353521463	6
0	8929	3110.284448981445	7
0	8930	3111.697168946955	6
0	8935	3111.774067781067	5
0	8941	3114.502987853203	6
0	8943	3115.521328810923	5
0	8953	3118.033341214373	6
0	8954	3118.791447667358	5
0	8960	3119.845735953342	6
0	8966	3122.991038036108	5
0	8974	3125.059343698111	6
0	8975	3126.443865267624	5
0	8987	3132.304470341243	6
0	8988	3133.096664449665	5
0	8995	3135.951032274482	6
0	8997	3136.205097851998	7
0	9000	3140.207343848941	6
0	9006	3140.266472823551	7
0	9008	3140.999652516608	8
0	9009	3141.174772999887	7
0	9014	3141.537063908507	6
0	9019	3142.717241185569	5
0	9026	3147.369144563039	6
0	9030	3147.713279155753	5
0	9035	3147.787407927379	4
0	9040	3149.25661047358	3
0	9044	3149.917224202924	4
0	9048	3151.67646092073	5
0	9051	3153.678160584603	4
0	9056	3155.138389573325	3
0	9061	3155.76809952723	2
0	9065	3155.82800866876	3
0	9068	3158.272764052961	2
0	9072	3159.252050136148	3
0	9075	3161.351948178538	2
0	9082	3162.369448771947	3
0	9085	3164.593893952542	4
0	9087	3164.616373961809	5
0	9088	3168.412745856556	4
0	9100	3173.066616866373	5
0	9101	3173.090699874146	4
0	9108	3174.193576305512	3
0	9115	3176.009590219082	2
0	9120	3176.045640610246	1
0	9124	3176.317061415317	2
0	9130	3180.569093959176	3
0	9132	3184.629478827001	4
0	9133	3184.962559506325	3
0	9139	3187.623620350512	2
0	9145	3188.801354817414	3
0	9149	3192.07968802779	2
0	9155	3193.194076894562	1
0	9161	3195.432784142384	0
0	9167	3195.829782006422	1
0	9169	3198.782930021483	0
0	9176	3201.953207657359	1
0	9178	3205.475394900373	2
0	9179	3205.92797218766	1
0	9189	3208.178823560454	2
0	9192	3212.120082469982	3
0	9193	3212.414392601064	2
0	9198	3212.587628965354	1
0	9205	3214.018558711972	0
0	9209	3215.239465857274	1
0	9212	3216.634002520278	0
0	9232	3223.678850324695	1
0	9233	3224.602084039969	0
0	9243	3226.082446956236	1
0	9245	3228.992071404862	2
0	9246	3229.110823047575	1
0	9257	3232.315751760799	2
0	9258	3234.372181278513	1
0	9264	3235.120458260255	2
0	9265	3235.449421283845	1
0	9270	3236.202449278134	0
0	9290	3241.234282323254	1
0	9292	3242.901489336674	2
0	9296	3243.432899123358	1
0	9306	3244.411021013626	2
0	9307	3244.555001697527	1
0	9314	3246.069122221499	0
0	9323	3248.28563985364	1
0	9326	3248.547226757813	2
0	9327	3248.695205550967	1
0	9333	3249.682629501596	0
0	9340	3250.438911948536	1
0	9341	3250.590528076551	0
0	9385	3262.322663337493	1
0	9386	3262.646232628276	0
0	9403	3265.304594596844	1
0	9406	3266.151469381166	0
0	9412	3266.933826069684	1
0	9417	3267.653524022317	0
0	9444	3276.328104240249	1
0	9448	3278.067671601569	2
0	9449	3278.946814430338	1
0	9454	3279.293254581609	0
0	9471	3282.085048659136	1
0	9475	3284.628957348594	2
0	9476	3285.342454982424	1
0	9485	3288.554480377953	2
0	9486	3290.341397729776	1
0	9491	3290.559800193138	0
0	9504	3292.964603928558	1
0	9505	3292.990438570468	0
0	9545	3305.178319633309	1
0	9548	3306.207319583862	0
0	9559	3308.135248770463	1
0	9564	3311.241177443443	0
0	9571	3312.100875510041	1
0	9572	3313.661530135823	0
0	9588	3319.262676683301	1
0	9590	3323.126065953323	2
0	9593	3326.103515993487	1
0	9598	3326.546970501703	0
0	9606	3327.103612618348	1
0	9608	3327.553529514097	0
0	9630	3333.508811771957	1
0	9631	3335.318756327621	0
0	9638	3335.927251908328	1
0	9639	3337.319190744027	0
0	9648	3338.733337322041	1
0	9652	3343.516804370792	0
0	9674	3349.926288285373	1
0	9679	3352.225575382381	0
0	9688	3353.567876869648	1
0	9694	3356.108400212349	0
0	9701	3358.829189265726	1
0	9702	3358.867988308784	0
0	9713	3362.666495113351	1
0	9718	3364.782442345424	2
0	9720	3368.69828982991	3
0	9723	3372.559165995908	2
0	9729	3374.020869840084	3
0	9733	3376.901868782196	2
0	9740	3378.629666261674	1
0	9748	3379.285835053848	0
0	9759	3382.870285634517	1
0	9761	3383.165278290513	2
0	9763	3386.828627469717	3
0	9767	3387.002418058229	4
0	9769	3389.262802624343	5
0	9772	3391.929399324599	4
0	9780	3394.461652594408	3
0	9786	3395.719928576799	2
0	9791	3397.07878947181	1
0	9797	3398.815423193636	2
0	9799	3399.191978363245	3
0	9801	3400.821555414553	2
0	9808	3401.396044775318	1
0	9814	3402.189357568731	0
0	9825	3404.975928044205	1
0	9827	3405.064356518063	2
0	9828	3405.09592522481	1
0	9833	3405.407796282764	0
0	9870	3413.380192615663	1
0	9875	3422.347641282372	0
0	9892	3428.085469440049	1
0	9895	3429.892824786387	0
0	9919	3434.520720610078	1
0	9921	3434.857610246651	2
0	9924	3436.233967969497	1
0	9930	3438.320735581222	0
0	9951	3444.393342911207	1
0	9954	3448.890363670146	0
0	9967	3449.567303953294	1
0	9969	3449.622132626778	2
0	9972	3451.510166018092	3
0	9974	3452.381290698164	4
0	9975	3452.453669995532	3
0	9980	3453.839698315458	2
0	9985	3453.912257738457	1
0	9993	3455.440184551911	2
0	9996	3456.846772773148	1
0	10002	3457.207492970517	2
0	10006	3462.291921081811	1
0	10012	3462.877542823173	2
0	10014	3464.538454057089	1
0	10021	3465.953443163974	0
0	10038	3468.520764554421	1
0	10040	3469.791275478678	0
0	10049	3470.405657305432	1
0	10053	3471.985182507521	2
0	10059	3474.605326507348	3
0	10063	3479.887052138564	4
0	10064	3480.069144907731	3
0	10075	3484.791260061395	4
0	10077	3486.004438206512	5
0	10078	3486.074644151632	4
0	10086	3487.757973601813	5
0	10087	3487.923037148588	4
0	10092	3489.19449650238	3
0	10097	3491.567956070974	2
0	10101	3492.788853599973	3
0	10103	3493.860610099013	4
0	10110	3495.797710393324	3
0	10114	3496.271701991629	4
0	10118	3500.840277476582	5
0	10121	3503.163929554792	4
0	10125	3504.042266885248	5
0	10128	3505.435891520078	4
0	10133	3508.214108719285	3
0	10138	3508.992815790684	2
0	10143	3509.909120474742	1
0	10147	3510.937170127822	2
0	10151	3512.857721075785	3
0	10152	3513.134202543627	2
0	10161	3523.174363672865	1
0	10167	3523.817209921168	0
0	10178	3529.079119766953	1
0	10180	3529.51290074807	2
0	10183	3530.005455813002	1
0	10195	3538.736000716468	0
0	10202	3544.492236217988	1
0	10204	3544.6173872839	2
0	10205	3544.722250826725	1
0	10213	3545.573167014842	0
0	10233	3546.688594513234	1
0	10234	3547.708313928924	0
0	10251	3550.788974313294	1
0	10252	3551.120284132422	0
0	10269	3555.565459911872	1
0	10272	3557.708152270184	0
0	10278	3558.088961731259	1
0	10280	3558.2054426455	2
0	10282	3558.540811323689	3
0	10284	3558.797916847658	4
0	10285	3559.656715347675	3
0	10290	3559.656866630077	2
0	10296	3563.763467915558	1
0	10302	3565.458997404467	2
0	10304	3567.114079178145	1
0	10309	3567.331353531694	0
0	10326	3575.240954479151	1
0	10329	3575.313090663058	2
0	10331	3575.457430417334	3
0	10334	3577.817969999839	4
0	10336	3578.091034470948	5
0	10339	3578.168787356591	4
0	10347	3580.124652446265	5
0	10349	3583.990006188993	6
0	10350	3585.805216557134	5
0	10359	3588.040458976509	6
0	10360	3589.728130226076	5
0	10366	3590.889958238318	4
0	10372	3590.916073923157	5
0	10373	3592.373067597316	4
0	10379	3592.748317119976	5
0	10385	3593.983372448528	4
0	10394	3597.01848156912	3
0	10401	3599.267529385886	2
0	10406	3599.672180554592	1
0	10415	3601.417965483155	0
0	10421	3604.510308908229	1
0	10422	3605.314268873015	0
0	10440	3611.473385371567	1
0	10441	3611.800617478418	0
0	10461	3623.607157491323	1
0	10464	3623.792173719287	0
0	10471	3626.695566048444	1
0	10476	3630.925812687766	0
0	10508	3653.802469799164	1
0	10510	3653.933725984505	2
0	10513	3656.566348522843	1
0	10519	3658.633106976619	2
0	10520	3661.276512077949	1
0	10527	3661.468607794952	0
0	10542	3667.957343943822	1
0	10543	3668.031246455875	0
0	10575	3683.799520252214	1
0	10576	3683.862630685572	0
0	10605	3693.849957616575	1
0	10606	3694.007958832387	0
0	10617	3694.661888459648	1
0	10619	3695.193206472486	2
0	10625	3698.757884326078	3
0	10632	3699.75506659919	4
0	10634	3699.868516800782	5
0	10635	3702.804821472788	4
0	10641	3703.509511852758	3
0	10647	3704.73461431157	4
0	10650	3705.950384926499	5
0	10651	3707.009749219259	4
0	10656	3707.180716723575	3
0	10665	3708.227234048214	2
0	10671	3709.571794290003	3
0	10672	3710.377487521762	2
0	10676	3712.203896283441	3
0	10681	3714.124106857499	2
0	10690	3717.248231895691	1
0	10697	3719.834394411385	0
0	10701	3719.919086040565	1
0	10703	3720.954752493676	2
0	10707	3723.539110964498	1
0	10714	3724.414887441606	0
0	10720	3724.771109959768	1
0	10727	3728.162482843695	2
0	10729	3728.546891107121	3
0	10730	3730.896813201417	2
0	10736	3731.040303875457	3
0	10737	3731.115101578349	2
0	10743	3731.988068541843	3
0	10746	3732.561337268261	2
0	10753	3735.220575562488	3
0	10754	3737.270402396193	2
0	10760	3737.656330374664	3
0	10762	3737.858021022471	4
0	10766	3740.769330953809	5
0	10767	3740.828805350444	4
0	10775	3742.173342195064	3
0	10780	3744.191586689533	2
0	10785	3745.756870034948	1
0	10791	3749.123065109129	2
0	10794	3750.603566472294	1
0	10800	3752.067225327366	2
0	10802	3755.092309117697	3
0	10810	3757.847317557083	4
0	10811	3758.661299011547	3
0	10817	3758.817951038376	2
0	10823	3758.891956873616	3
0	10824	3759.825820149622	2
0	10829	3764.822525518328	1
0	10840	3770.49170661617	0
0	10846	3770.698498014409	1
0	10847	3771.717644084532	0
0	10864	3773.659004488136	1
0	10868	3775.193366786651	0
0	10877	3777.043513380139	1
0	10883	3778.805875649371	0
0	10889	3781.014281647468	1
0	10891	3782.08153412832	0
0	10897	3782.776002626978	1
0	10898	3783.212637663789	0
0	10906	3785.126904410448	1
0	10908	3785.268087970701	2
0	10911	3786.335252064154	1
0	10919	3790.035575240609	0
0	10925	3790.193732930991	1
0	10927	3791.155436997892	2
0	10930	3791.783399878689	3
0	10931	3793.049183272658	2
0	10940	3795.14640538582	3
0	10941	3797.993631118707	2
0	10946	3798.851999571578	1
0	10952	3799.075608726781	2
0	10954	3799.167764428562	1
0	10961	3802.254907207793	2
0	10962	3804.868831440194	1
0	10967	3806.234834120133	0
0	10977	3807.512257063314	1
0	10980	3808.718122915298	0
0	11001	3811.8644466127	1
0	11005	3817.278986805211	0
0	11017	3821.320891283387	1
0	11018	3823.205162359773	0
0	11053	3840.627482395574	1
0	11057	3841.785436554963	2
0	11058	3842.936236323637	1
0	11064	3843.547438118961	2
0	11065	3843.647484548568	1
0	11072	3845.156763553656	0
0	11081	3845.434843169385	1
0	11083	3845.622131196614	2
0	11087	3846.792900275779	3
0	11092	3853.24939016762	4
0	11096	3854.584167033162	5
0	11098	3854.864190588626	6
0	11100	3856.339276828271	7
0	11101	3856.972687752545	6
0	11106	3857.292967546142	5
0	11111	3857.621616766362	4
0	11120	3864.661939052489	3
0	11130	3868.471657396901	4
0	11132	3869.256906366792	5
0	11134	3869.434558734922	6
0	11135	3870.312611650636	5
0	11141	3872.235423227521	6
0	11143	3874.453851710933	7
0	11148	3877.244220030553	8
0	11150	3877.550055531936	7
0	11156	3879.72532536758	6
0	11161	3880.994760770159	5
0	11166	3881.258316549837	4
0	11170	3881.396078493267	5
0	11173	3882.172002178602	4
0	11179	3883.278819982637	3
0	11184	3883.78976292871	2
0	11191	3885.925577769197	1
0	11197	3886.532568041843	2
0	11199	3886.625053689364	3
0	11201	3887.21290718096	4
0	11202	3890.011509664159	3
0	11208	3890.490535553206	4
0	11210	3891.502973806809	3
0	11216	3892.645244333015	4
0	11220	3893.351910247296	5
0	11226	3896.912421174551	6
0	11227	3897.261425156839	5
0	11232	3897.936701372802	4
0	11239	3900.01731512573	3
0	11245	3900.018591263058	4
0	11247	3901.334889860326	5
0	11249	3901.797394640934	6
0	11250	3901.83508066985	5
0	11257	3902.16071814467	6
0	11258	3904.031706505876	5
0	11263	3905.050498626038	4
0	11271	3907.436436172056	5
0	11273	3907.53139665048	6
0	11274	3908.487722478275	5
0	11279	3910.673692421706	4
0	11283	3911.593764318565	5
0	11287	3913.173349777301	6
0	11289	3913.331306070006	7
0	11290	3914.413844033901	6
0	11295	3919.557760758017	5
0	11299	3919.654876979906	6
0	11301	3920.108122100833	7
0	11304	3921.512457067232	6
0	11312	3924.56816705393	7
0	11313	3925.53825900981	6
0	11318	3926.054950141856	5
0	11323	3929.690859057233	4
0	11330	3932.643561002397	3
0	11335	3935.181167746741	2
0	11340	3936.189713085312	1
0	11344	3936.274197343775	2
0	11348	3936.943156013013	1
0	11354	3938.460608321693	2
0	11355	3938.938074746553	1
0	11361	3939.279896479968	2
0	11364	3940.763215936567	1
0	11369	3941.616463288869	0
0	11394	3957.284752535139	1
0	11397	3960.306617150751	0
0	11409	3966.050900179996	1
0	11411	3966.222767432931	2
0	11413	3966.628046227789	3
0	11418	3968.914987487854	2
0	11424	3970.653714670278	1
0	11429	3970.934874859243	0
0	11435	3971.154091323215	1
0	11436	3971.180097701923	0
0	11440	3971.228708511882	1
0	11445	3972.414740054817	0
0	11458	3974.429513257199	1
0	11460	3975.255394851378	2
0	11466	3980.49047122814	3
0	11471	3986.444889267235	2
0	11478	3987.871864336068	3
0	11479	3990.484460213932	2
0	11485	3992.785917691549	1
0	11490	3993.129080922719	0
0	11496	3994.081218255535	1
0	11498	3995.606704852174	2
0	11500	3995.922055548806	3
0	11502	3997.253017258708	2
0	11508	3997.615790733156	3
0	11509	4000.419294411112	2
0	11522	4005.029597046261	3
0	11523	4005.145965917702	2
0	11532	4005.907729994464	3
0	11533	4006.932480007474	2
0	11539	4007.228948682727	1
0	11547	4008.526481946818	2
0	11548	4009.763270604828	1
0	11557	4012.322402685298	2
0	11559	4012.80464379925	3
0	11561	4016.202499971861	4
0	11562	4016.41461753156	3
0	11568	4017.466617836092	4
0	11570	4018.588560820705	5
0	11572	4020.190361835162	6
0	11574	4020.81513324123	5
0	11580	4022.411585509081	4
0	11585	4022.759451180045	3
0	11590	4025.348756755934	2
0	11595	4027.672037105225	1
0	11599	4028.392341465672	2
0	11602	4029.390624641318	1
0	11607	4029.887547030318	0
0	11618	4033.842840647038	1
0	11619	4034.582580058189	0
0	11663	4054.193820597805	1
0	11665	4057.748724362933	2
0	11667	4060.535647465241	3
0	11668	4060.744487866378	2
0	11674	4061.572632209599	3
0	11675	4062.809058511331	2
0	11680	4063.548569088872	1
0	11686	4066.902987763255	2
0	11687	4067.003444907612	1
0	11692	4067.170032704812	0
0	11696	4068.749810351669	1
0	11702	4070.525273194964	0
0	11714	4073.737658478883	1
0	11716	4075.15544384495	2
0	11718	4078.941641196465	1
0	11725	4079.835616512555	0
0	11748	4086.456202849016	1
0	11756	4090.54100865407	0
0	11775	4091.86993996464	1
0	11778	4093.132275237072	0
0	11784	4094.075960454809	1
0	11788	4098.583579777305	0
0	11796	4099.085831077235	1
0	11801	4109.49481356384	2
0	11802	4109.669530915185	1
0	11809	4110.298759449918	0
0	11827	4114.737136092727	1
0	11829	4115.089564129907	2
0	11830	4117.570073088106	1
0	11843	4122.786421210588	2
0	11844	4123.885606491335	1
0	11850	4124.721306389203	0
0	11859	4126.930864266208	1
0	11866	4127.960380236521	2
0	11867	4128.330041747251	1
0	11873	4130.29486716446	0
0	11879	4130.354767120277	1
0	11881	4131.264984409396	0
0	11894	4132.999269394579	1
0	11896	4133.581657237741	2
0	11898	4134.644427759682	3
0	11904	4140.330767047038	2
0	11914	4144.758413722921	1
0	11920	4147.501754675091	2
0	11922	4148.375352286093	3
0	11924	4150.014592679559	4
0	11925	4150.237553569893	3
0	11930	4151.646540380099	2
0	11936	4157.826964601861	3
0	11940	4159.708446681529	4
0	11943	4160.563161661445	3
0	11948	4161.237563038359	2
0	11955	4161.757587635109	1
0	11964	4163.705732823193	0
0	11989	4167.350412091357	1
0	11991	4168.689018831015	2
0	11992	4171.664923571426	1
0	11998	4171.683915806626	2
0	11999	4171.987419256109	1
0	12006	4173.001262473272	2
0	12009	4174.850650715188	3
0	12013	4175.299969440903	2
0	12018	4175.473985812699	1
0	12024	4176.481565246828	0
0	12049	4180.745572373221	1
0	12051	4180.894335521513	2
0	12053	4182.097026136228	3
0	12055	4185.965412518431	4
0	12056	4187.979645259306	3
0	12061	4188.649978639851	2
0	12068	4189.414884518523	1
0	12074	4190.666404647921	0
0	12080	4191.361872499093	1
0	12081	4191.849002145006	0
0	12101	4198.708739948648	1
0	12102	4199.462136622665	0
0	12108	4199.759635614206	1
0	12110	4201.013325158233	0
0	12117	4201.52423294995	1
0	12118	4203.132481006241	0
0	12128	4203.923780668631	1
0	12131	4205.209602871484	0
0	12138	4206.929889551158	1
0	12139	4207.55203607573	0
0	12147	4208.848541141294	1
0	12148	4208.980067931544	0
0	12152	4210.332887095992	1
0	12155	4212.650280684678	0
0	12185	4217.697406361041	1
0	12187	4218.437408718427	2
0	12188	4218.57029934614	1
0	12193	4219.565022387005	0
0	12199	4221.270310600313	1
0	12200	4221.340331172921	0
0	12210	4225.422424222249	1
0	12213	4227.750226736752	0
0	12219	4228.147407339706	1
0	12220	4228.565215797932	0
0	12230	4231.135249618988	1
0	12235	4232.287781217893	2
0	12239	4235.390432059077	3
0	12240	4235.544308955763	2
0	12245	4239.123121468203	1
0	12250	4239.702989411727	0
0	12262	4242.216721395983	1
0	12264	4242.348002227245	2
0	12267	4243.150556777033	3
0	12268	4243.515892123457	2
0	12276	4244.520899191139	1
0	12283	4252.019508250735	0
0	12289	4252.274003519369	1
0	12290	4252.719366075962	0
0	12296	4253.183276755489	1
0	12299	4257.552841935191	0
0	12305	4258.065383902423	1
0	12307	4260.813145599752	0
0	12313	4262.157454978834	1
0	12314	4262.988203516366	0
0	12320	4264.009401312791	1
0	12323	4265.791705956415	2
0	12324	4266.533752580582	1
0	12329	4266.952334348522	0
0	12347	4273.308173894015	1
0	12349	4275.347023445605	2
0	12350	4276.248874425879	1
0	12356	4276.788942555357	0
0	12372	4281.065064184069	1
0	12373	4281.162010147123	0
0	12408	4288.596562858824	1
0	12410	4288.924558644671	2
0	12412	4292.122154442514	3
0	12414	4293.405392385098	4
0	12415	4294.287171954189	3
0	12421	4295.657178556562	2
0	12427	4297.39904475411	1
0	12434	4299.953573090688	2
0	12441	4301.340742216836	1
0	12447	4303.993730520516	0
0	12474	4308.743550744547	1
0	12476	4308.843115384495	2
0	12478	4310.049890288301	3
0	12480	4312.240073566549	4
0	12485	4318.820312905556	3
0	12491	4319.121949678701	2
0	12496	4319.307469412921	1
0	12501	4320.507133713953	0
0	12507	4324.869913224015	1
0	12509	4327.053895507334	2
0	12513	4329.551740699759	1
0	12518	4331.366071039647	0
0	12524	4334.653326151699	1
0	12527	4335.084868352567	2
0	12528	4337.746776201045	1
0	12532	4337.953201169167	2
0	12536	4340.027491964611	1
0	12543	4341.608459991545	0
0	12569	4347.62404075554	1
0	12581	4354.229494550499	2
0	12582	4354.435671304172	1
0	12587	4355.005657267441	0
0	12609	4358.869962287682	1
0	12611	4358.878853118254	2
0	12612	4359.020072940332	1
0	12618	4359.952505984983	0
0	12622	4360.184113120892	1
0	12628	4365.721837635506	0
0	12634	4366.828333432751	1
0	12636	4367.735358408094	0
0	12645	4371.590617584811	1
0	12648	4372.295224741453	0
0	12663	4376.243142742711	1
0	12666	4381.634027266061	0
0	12677	4382.693797823921	1
0	12682	4383.062646701142	2
0	12683	4386.149870701953	1
0	12690	4389.728638487134	2
0	12692	4389.770706390933	3
0	12693	4395.627285469777	2
0	12699	4397.776798517486	3
0	12701	4397.791819060164	4
0	12702	4397.912172355001	3
0	12713	4399.867248862839	4
0	12715	4400.240532389816	5
0	12716	4401.969103968158	4
0	12722	4403.042315822961	5
0	12723	4403.403806553553	4
0	12730	4406.467267502491	3
0	12739	4409.055434920669	4
0	12740	4409.177348022035	3
0	12746	4410.613271972212	2
0	12752	4411.269283259828	1
0	12758	4411.66590543694	2
0	12760	4411.84866465644	1
0	12766	4411.965855580509	2
0	12768	4412.162331972818	3
0	12773	4414.231216690942	4
0	12774	4415.38044700205	3
0	12780	4418.8570511375	2
0	12786	4420.079163252519	1
0	12792	4421.219301198775	0
0	12810	4426.548488681681	1
0	12811	4426.910116567145	0
0	12817	4427.01064372566	1
0	12819	4427.577751955193	2
0	12822	4427.715147061975	3
0	12824	4429.760873402618	4
0	12825	4429.973910367804	3
0	12830	4429.975968335537	2
0	12836	4430.931607186865	1
0	12842	4434.282848955477	2
0	12845	4436.794239521439	1
0	12852	4438.671649924853	0
0	12859	4440.935293101747	1
0	12861	4441.020077359918	2
0	12863	4441.614425363354	3
0	12867	4443.329803175464	4
0	12869	4444.683776111179	5
0	12871	4448.666656323694	6
0	12872	4449.854590102923	5
0	12878	4449.914430397416	4
0	12885	4450.348128350766	5
0	12886	4452.306183599777	4
0	12892	4452.461925973171	5
0	12894	4454.627754268533	4
0	12900	4455.577973637071	3
0	12906	4457.073568869912	4
0	12909	4457.397923025913	3
0	12915	4458.275915679226	4
0	12917	4459.030856230259	5
0	12920	4459.127052779961	4
0	12928	4461.115004780647	5
0	12930	4461.73089929463	6
0	12931	4463.287488819345	5
0	12938	4467.099116127581	4
0	12948	4471.835596921669	5
0	12949	4473.695921889649	4
0	12953	4473.712337006327	5
0	12955	4478.223635540534	6
0	12959	4482.519928245696	5
0	12964	4482.771252315049	4
0	12968	4483.22200096649	5
0	12975	4484.886746323165	6
0	12976	4485.422542155247	5
0	12981	4485.437111701787	4
0	12985	4486.540875632486	5
0	12987	4488.350114949754	6
0	12995	4491.947479021684	7
0	12996	4494.136237581026	6
0	13008	4496.402266913826	5
0	13013	4497.408386410526	4
0	13022	4507.063810964737	3
0	13027	4508.440476167849	2
0	13032	4509.117075793953	1
0	13036	4509.754808932662	2
0	13038	4510.634374614597	3
0	13041	4513.096449206158	2
0	13049	4517.77625731325	3
0	13050	4519.186692171309	2
0	13055	4519.38673270348	1
0	13060	4519.500914275403	0
0	13066	4520.465979139947	1
0	13068	4526.025628140305	2
0	13069	4526.217028545014	1
0	13079	4529.260131461708	2
0	13081	4531.073993827083	3
0	13083	4531.730785284867	4
0	13084	4532.524936287169	3
0	13090	4532.556140445599	4
0	13092	4533.305572310402	5
0	13093	4533.356463203429	4
0	13099	4534.55310637952	5
0	13100	4535.243412254879	4
0	13104	4536.904518957512	5
0	13106	4537.566119342703	6
0	13108	4538.444465529319	7
0	13110	4541.015616605239	8
0	13115	4546.948804907961	7
0	13123	4548.2656240454	6
0	13129	4550.404370538243	5
0	13136	4553.150745061623	6
0	13138	4553.267551247349	7
0	13140	4554.775212524545	8
0	13141	4556.093753691358	7
0	13147	4556.97607217009	8
0	13149	4557.626448415909	9
0	13150	4559.004686845465	8
0	13163	4563.640640832112	7
0	13170	4564.98521669227	8
0	13171	4567.022290238959	7
0	13177	4567.918936660782	6
0	13184	4569.154506403113	7
0	13185	4570.125772005254	6
0	13192	4571.278108726996	7
0	13193	4572.419968888781	6
0	13198	4572.878826948992	5
0	13203	4572.976257825843	4
0	13208	4574.592467847373	3
0	13214	4577.50952309587	2
0	13223	4579.059739444963	1
0	13229	4579.638298217526	2
0	13231	4580.126867685638	3
0	13233	4581.272399583328	4
0	13234	4582.241714616515	3
0	13239	4583.142307792671	2
0	13244	4584.986307387247	1
0	13251	4588.267848259467	0
0	13278	4606.265215498594	1
0	13280	4607.24058068123	2
0	13282	4608.136537899822	3
0	13283	4608.302439841353	2
0	13289	4612.253198763741	1
0	13294	4613.486601105081	0
0	13300	4613.532721375275	1
0	13302	4614.128084666157	2
0	13305	4617.143728121328	1
0	13310	4617.445205448915	0
0	13314	4619.197254158345	1
0	13316	4619.989185360517	2
0	13322	4622.565421087202	1
0	13327	4623.470799138907	0
0	13331	4624.062213084569	1
0	13337	4626.001927866018	2
0	13340	4629.422360484641	1
0	13346	4630.235115925354	0
0	13365	4633.392137215197	1
0	13366	4637.620928938052	0
0	13397	4648.499784005231	1
0	13401	4650.72234202089	0
0	13413	4653.296614337476	1
0	13414	4654.354116853381	0
0	13420	4655.649349923375	1
0	13422	4655.75689552771	2
0	13424	4655.801241396437	3
0	13426	4656.902916374842	4
0	13427	4658.087264652214	3
0	13435	4658.93492482875	4
0	13437	4659.829381714613	5
0	13438	4660.24246806653	4
0	13444	4661.187208177644	5
0	13445	4661.234657528694	4
0	13453	4662.190989956588	3
0	13459	4662.754552774492	4
0	13462	4663.335161967903	5
0	13463	4665.134947034291	4
0	13468	4665.55148770335	3
0	13478	4667.167112467238	2
0	13483	4667.869842359941	1
0	13488	4668.526459464426	0
0	13516	4675.940335960241	1
0	13517	4676.725280024426	0
0	13527	4682.025593839438	1
0	13531	4685.227849650099	2
0	13533	4686.975782315746	3
0	13537	4688.783744139259	4
0	13542	4692.516646024442	3
0	13547	4692.728048248518	2
0	13553	4692.987576741674	3
0	13554	4693.228991001963	2
0	13558	4694.166707869526	3
0	13562	4695.453051663344	4
0	13563	4697.151633062574	3
0	13569	4697.451653789771	4
0	13575	4698.785183772114	3
0	13581	4700.345630910419	4
0	13587	4702.475326522403	5
0	13589	4703.144542745899	6
0	13590	4703.339362258673	5
0	13600	4705.96959253891	4
0	13606	4708.466975213195	3
0	13614	4711.733940200744	4
0	13616	4711.891375606157	3
0	13622	4712.251157255843	4
0	13623	4713.135698197167	3
0	13630	4713.957031098144	2
0	13636	4713.979491648986	3
0	13639	4714.423423826502	4
0	13640	4714.824593916088	3
0	13646	4714.974404381335	4
0	13648	4716.643525651459	3
0	13653	4716.816009746183	2
0	13659	4718.94455522363	1
0	13664	4719.729606005842	0
0	13675	4720.823287484947	1
0	13679	4722.012679500114	2
0	13682	4725.534744610258	1
0	13688	4727.799009474627	2
0	13689	4728.980516288576	1
0	13695	4731.817681270454	2
0	13699	4732.550755293947	1
0	13704	4732.999530738124	0
0	13724	4740.828564823855	1
0	13726	4740.83229864936	2
0	13727	4740.836716595178	1
0	13735	4741.786398720662	2
0	13737	4742.86976530009	3
0	13738	4742.969308272304	2
0	13745	4743.610255285175	3
0	13749	4745.615517321224	4
0	13750	4747.315673019395	3
0	13755	4747.481827909953	2
0	13763	4750.9458091971	1
0	13769	4751.936135650163	2
0	13771	4751.945142757298	3
0	13772	4751.949355272941	2
0	13780	4756.121148502474	1
0	13785	4756.812800988407	0
0	13798	4763.386299067992	1
0	13801	4769.409055645829	2
0	13802	4769.692847518333	1
0	13812	4774.709213690451	0
0	13833	4778.470361842297	1
0	13836	4782.325389475161	2
0	13838	4782.850758288883	3
0	13839	4783.58056570068	2
0	13844	4783.771274681784	1
0	13849	4783.906686823228	0
0	13856	4787.618499742896	1
0	13859	4791.712673502044	0
0	13865	4793.759631220569	1
0	13867	4795.753158238527	0
0	13894	4801.825369499009	1
0	13896	4802.948415737913	2
0	13900	4804.239428361927	3
0	13902	4809.47157135212	4
0	13903	4809.927937910021	3
0	13908	4810.50732856505	2
0	13917	4811.32398625942	3
0	13920	4812.431088479476	4
0	13922	4813.439838361468	5
0	13924	4815.400388977025	4
0	13929	4816.2161680278	3
0	13937	4817.566658802163	2
0	13943	4819.22883999192	1
0	13949	4820.920426734583	0
0	13955	4821.27677711122	1
0	13958	4821.986465826545	2
0	13959	4822.496340845234	1
0	13965	4822.939891654813	0
0	13979	4824.757673725175	1
0	13981	4825.736225561499	2
0	13982	4826.829459558354	1
0	13987	4827.133221478892	0
0	14012	4831.831886387594	1
0	14016	4833.584237989087	2
0	14017	4834.71919703132	1
0	14023	4835.451021978936	0
0	14037	4837.448944924111	1
0	14038	4838.391644569515	0
0	14045	4839.821620146294	1
0	14046	4840.558754766916	0
0	14052	4840.754599602694	1
0	14054	4841.13650423156	2
0	14056	4841.362250581393	3
0	14057	4841.887988822408	2
0	14062	4844.441606874379	1
0	14066	4845.957905010222	2
0	14069	4846.619277060974	1
0	14074	4847.758843809006	0
0	14078	4853.030898929311	1
0	14083	4856.126729931218	0
0	14089	4856.32602257581	1
0	14095	4862.459742025609	0
0	14110	4864.450682203234	1
0	14116	4870.985841660354	2
0	14118	4872.293720427343	3
0	14124	4877.083368774412	4
0	14125	4877.456900118611	3
0	14130	4877.475516683904	2
0	14139	4879.099212477114	1
0	14147	4884.699998289828	0
0	14157	4889.080266005358	1
0	14160	4890.635599367326	0
0	14176	4899.463109053995	1
0	14179	4901.95166772611	0
0	14186	4902.671415078066	1
0	14187	4905.561826302972	0
0	14194	4909.053014272268	1
0	14196	4909.682653152994	2
0	14197	4910.757599167202	1
0	14203	4911.382362702976	0
0	14209	4912.447988747295	1
0	14210	4912.625670342332	0
0	14227	4915.17578534235	1
0	14232	4919.596755386017	0
0	14244	4923.362555807512	1
0	14245	4923.611192531675	0
0	14266	4933.929480097724	1
0	14268	4934.28299823742	2
0	14269	4935.605546795945	1
0	14275	4936.656863447703	0
0	14287	4945.619014231545	1
0	14288	4946.332169449035	0
0	14308	4952.787578753632	1
0	14314	4957.711634370617	0
0	14323	4960.302631318279	1
0	14327	4962.023565645883	0
0	14347	4965.603669597974	1
0	14349	4966.518637104492	2
0	14354	4970.291727344247	1
0	14359	4970.548957955942	0
0	14371	4972.899267117535	1
0	14373	4973.270052708535	0
0	14379	4973.477852555284	1
0	14380	4973.840980193275	0
0	14411	4996.438932883387	1
0	14413	4997.044920253228	2
0	14416	4997.276660720377	1
0	14423	4998.354604570191	2
0	14426	5000.944957489364	1
0	14435	5002.760756128012	2
0	14437	5005.100866733412	3
0	14441	5006.316470648443	4
0	14442	5007.314880644985	3
0	14450	5009.028823491913	2
0	14459	5010.821184268399	1
0	14467	5011.778005171736	2
0	14469	5012.259239060209	3
0	14470	5018.712234640424	2
0	14476	5019.688472818418	1
0	14481	5020.518887944473	0
0	14501	5027.619494493558	1
0	14504	5027.909004954142	0
0	14510	5028.584587018879	1
0	14514	5029.488320423587	0
0	14531	5035.811147649203	1
0	14532	5036.387874806807	0
0	14555	5041.108018390791	1
0	14556	5042.82393553547	0
0	14573	5046.022645211777	1
0	14577	5051.407878421316	2
0	14581	5055.485633680467	3
0	14584	5060.080461063048	2
0	14589	5060.214457464709	1
0	14594	5060.410137847769	0
0	14598	5063.433438269425	1
0	14600	5063.898966779277	2
0	14602	5064.95509139601	3
0	14604	5065.792843005863	4
0	14608	5067.622283777623	3
0	14615	5068.099484145614	4
0	14617	5068.526393951441	5
0	14618	5068.551186283515	4
0	14623	5070.061307254956	3
0	14633	5077.751836528688	4
0	14638	5080.688107665081	3
0	14643	5081.076729874712	2
0	14648	5081.423943721892	1
0	14652	5084.5230851585	2
0	14659	5086.200126369379	3
0	14661	5087.480243821027	2
0	14669	5088.702074501334	3
0	14671	5089.829372109534	4
0	14673	5090.635307149182	3
0	14679	5090.978646929752	4
0	14681	5096.744765185887	3
0	14688	5098.265735498671	4
0	14690	5099.239747265054	5
0	14691	5100.21168720681	4
0	14697	5101.637591586944	3
0	14702	5102.088485758392	2
0	14709	5103.240256026739	1
0	14715	5107.639944586862	2
0	14722	5109.114801150722	3
0	14725	5110.097697827004	2
0	14732	5112.535738767523	3
0	14733	5112.810011212986	2
0	14740	5114.930414433525	3
0	14742	5115.064120240334	4
0	14744	5115.448823433539	5
0	14745	5116.659952828404	4
0	14750	5116.999965016682	3
0	14758	5118.647043157111	2
0	14766	5121.354594901549	3
0	14768	5123.367472976762	4
0	14770	5124.981577454971	5
0	14771	5127.232091931573	4
0	14782	5129.324241599077	3
0	14788	5129.368780233652	4
0	14789	5129.617208342492	3
0	14794	5130.100929124824	2
0	14800	5131.985606280233	1
0	14805	5132.385265284696	0
0	14811	5134.405644978259	1
0	14813	5136.431522643832	0
0	14831	5139.140846747405	1
0	14834	5139.971188995595	0
0	14845	5142.554665045169	1
0	14847	5144.020350792685	0
0	14858	5145.6504127304	1
0	14859	5145.921657896757	0
0	14868	5147.051663733349	1
0	14874	5149.619404149658	0
0	14883	5151.136435668358	1
0	14884	5151.350530938386	0
0	14890	5152.448929253855	1
0	14891	5152.513109463699	0
0	14895	5153.181280160279	1
0	14900	5154.131610924079	2
0	14905	5155.081037232931	3
0	14906	5155.185984439507	2
0	14911	5156.052170306437	1
0	14916	5159.581109384863	0
0	14920	5160.294615190574	1
0	14924	5160.83284306322	2
0	14927	5162.111456211748	1
0	14934	5163.747532550596	0
0	14947	5168.093420196456	1
0	14949	5169.012819962168	2
0	14951	5169.301506097644	3
0	14952	5170.202519405968	2
0	14960	5171.897209869352	3
0	14962	5172.57658933965	4
0	14964	5175.650102489742	5
0	14967	5177.618325203356	4
0	14973	5179.193108821016	3
0	14980	5180.488288276325	2
0	14986	5180.77389820871	3
0	14993	5184.670410359125	2
0	14999	5186.84364666197	1
0	15005	5187.264594156441	2
0	15007	5187.352180635384	1
0	15012	5188.388861776495	0
0	15018	5191.294465712328	1
0	15026	5198.188801986687	0
0	15033	5199.770528541998	1
0	15034	5202.570834771344	0
0	15047	5204.253441966418	1
0	15048	5204.831905843294	0
0	15064	5207.732444728149	1
0	15066	5207.872660689137	2
0	15067	5208.165204464452	1
0	15074	5210.374154508384	2
0	15075	5210.615075442883	1
0	15081	5212.365472524266	2
0	15083	5215.331069722381	1
0	15088	5216.318714447637	0
0	15110	5227.310416784097	1
0	15113	5228.817454685835	0
0	15121	5230.477150035806	1
0	15124	5234.518446848637	0
0	15133	5237.742013472478	1
0	15135	5238.295045632167	2
0	15138	5240.418213896287	1
0	15146	5241.807799261505	0
0	15158	5243.275153645881	1
0	15161	5245.192380958557	0
0	15170	5247.398401065952	1
0	15174	5248.657950740547	2
0	15178	5252.051226934367	3
0	15180	5252.373684672798	4
0	15184	5256.146139562711	5
0	15186	5257.592449919805	6
0	15188	5257.605456450509	7
0	15191	5259.08068716555	6
0	15202	5262.800801785436	7
0	15204	5264.168288624032	8
0	15208	5267.780042507157	9
0	15212	5269.933929072423	10
0	15213	5271.606398018653	9
0	15219	5272.310261852018	8
0	15228	5275.177224943905	9
0	15230	5276.765092837511	10
0	15231	5280.940210492268	9
0	15238	5281.338092213598	8
0	15246	5283.588176787494	9
0	15250	5285.019701137762	10
0	15255	5290.923699820094	9
0	15262	5291.944351958091	10
0	15265	5293.169445516903	9
0	15275	5295.5641861988	8
0	15281	5295.604132040602	9
0	15283	5296.211029780407	8
0	15288	5297.308392582953	7
0	15293	5297.86060032601	6
0	15297	5298.176640433796	7
0	15299	5298.606457224943	8
0	15303	5301.278705962371	9
0	15306	5303.223793452138	8
0	15310	5303.361527606952	9
0	15316	5308.073751564001	8
0	15323	5310.37013919881	7
0	15331	5311.682031440626	6
0	15337	5311.706785733233	7
0	15338	5312.397880209528	6
0	15342	5314.438545309879	7
0	15347	5316.147170183096	6
0	15353	5319.385728441732	7
0	15354	5319.43542997747	6
0	15359	5319.546659500728	5
0	15364	5319.812913020711	4
0	15368	5320.758510320615	5
0	15372	5323.224911343615	6
0	15375	5329.302284733685	5
0	15379	5330.888480141285	6
0	15381	5333.958266707617	7
0	15386	5335.407698929327	8
0	15387	5336.274616312581	7
0	15392	5337.114362320408	6
0	15401	5343.874001201238	5
0	15406	5345.362050209731	4
0	15414	5350.829699213204	3
0	15420	5350.845787228321	4
0	15422	5351.577523368348	3
0	15427	5351.866175857807	2
0	15433	5354.485438149497	3
0	15434	5355.668475112646	2
0	15439	5358.321394734476	1
0	15446	5359.264614400432	0
0	15461	5364.744035751104	1
0	15463	5364.954000002816	2
0	15464	5365.04558891007	1
0	15471	5365.313259990643	2
0	15472	5366.78490857499	1
0	15477	5368.137097738473	0
0	15486	5369.033887806466	1
0	15488	5371.031481315384	2
0	15489	5371.213456894927	1
0	15494	5371.226521286862	0
0	15506	5376.828191499204	1
0	15507	5377.03968606939	0
0	15521	5379.744702470646	1
0	15525	5383.590082964442	2
0	15527	5385.221048002067	3
0	15528	5385.589344147356	2
0	15533	5386.36541229852	1
0	15537	5386.369505130568	2
0	15540	5388.401939058892	1
0	15549	5394.19520303304	2
0	15551	5394.350081559822	3
0	15555	5396.419897041243	2
0	15562	5398.990397190142	1
0	15570	5401.145109351456	2
0	15576	5402.504345322771	3
0	15577	5405.547076725511	2
0	15584	5406.755709190063	3
0	15585	5406.842357749985	2
0	15592	5408.295344148227	1
0	15598	5411.574749960544	0
0	15604	5411.891890243091	1
0	15607	5412.830057911941	0
0	15611	5413.875749828634	1
0	15615	5416.173495307488	0
0	15638	5425.266369789877	1
0	15642	5426.460289073662	2
0	15645	5426.847743360559	1
0	15651	5427.995766714077	0
0	15662	5429.619245312601	1
0	15665	5430.56751288761	0
0	15695	5439.84600428567	1
0	15697	5440.741077823568	2
0	15702	5444.603480642459	3
0	15705	5446.02108508682	2
0	15714	5451.173088636604	1
0	15718	5451.179454676137	2
0	15721	5454.725773000586	1
0	15727	5457.096033015907	2
0	15731	5457.424344514851	3
0	15734	5458.986501614108	2
0	15744	5464.038075650348	3
0	15745	5465.007176654329	2
0	15750	5465.417388080305	1
0	15755	5470.277942901483	0
0	15762	5471.925889779231	1
0	15770	5475.322044798528	0
0	15795	5480.345616176746	1
0	15796	5481.078757324216	0
0	15805	5483.107862521701	1
0	15807	5484.219531145003	2
0	15809	5485.136845026484	3
0	15811	5485.764854860942	4
0	15820	5492.486711395522	5
0	15821	5493.037028084365	4
0	15827	5494.407409065488	3
0	15835	5498.719543465623	2
0	15840	5499.860819558234	1
0	15846	5501.204269439524	2
0	15849	5503.733537792322	1
0	15855	5505.38977325913	0
0	15867	5507.967025565406	1
0	15869	5515.933997051175	2
0	15872	5518.703451216456	3
0	15873	5518.928576785299	2
0	15878	5518.992434403484	1
0	15885	5520.105150468002	0
0	15910	5527.794748421084	1
0	15915	5530.213396811415	0
0	15926	5534.805377620413	1
0	15927	5535.949413625862	0
0	15933	5536.08497301586	1
0	15935	5536.263826355291	2
0	15940	5537.877784187874	1
0	15946	5538.883586810773	0
0	15957	5541.30016253342	1
0	15958	5541.460147286926	0
0	15970	5544.187142697934	1
0	15972	5545.359614166173	2
0	15975	5547.432264130686	3
0	15976	5547.740528777911	2
0	15984	5548.64437522753	3
0	15990	5551.431391763886	4
0	15992	5551.840266628242	5
0	15994	5554.526524126805	4
0	15999	5555.982531266048	3
0	16005	5556.364397474512	2
0	16012	5559.195921477799	1
0	16017	5560.520528605988	0
0	16034	5561.98181592716	1
0	16039	5564.494341711867	0
0	16050	5566.784490550331	1
0	16057	5569.852070264467	0
0	16064	5581.906902158298	1
0	16067	5582.108703539222	0
0	16099	5594.240035743706	1
0	16100	5594.248426684355	0
0	16120	5602.325937277009	1
0	16123	5605.635681508627	0
0	16129	5606.803564851375	1
0	16130	5607.753669133471	0
0	16138	5609.475634632858	1
0	16141	5610.193046553577	2
0	16143	5610.315310260348	3
0	16145	5611.681459082131	4
0	16147	5613.402174611751	5
0	16149	5613.960433238143	6
0	16152	5617.163488776353	5
0	16157	5617.232406655059	4
0	16161	5618.084939070353	5
0	16163	5618.368828300615	6
0	16166	5620.596542595393	5
0	16170	5621.905153230291	6
0	16172	5622.536339666461	7
0	16181	5630.146689596375	6
0	16189	5632.33921065536	7
0	16191	5632.624195249418	8
0	16192	5633.892702751899	7
0	16197	5634.533741294946	6
0	16201	5636.272545277317	7
0	16203	5639.005786843362	8
0	16207	5641.017281941672	9
0	16208	5641.889765730103	8
0	16216	5645.24600560138	9
0	16217	5645.327747236763	8
0	16224	5646.448558868766	9
0	16225	5646.516570423133	8
0	16232	5647.333387654743	9
0	16235	5648.828438719466	8
0	16242	5649.563660600839	7
0	16249	5650.701269585987	6
0	16253	5651.227259664866	7
0	16258	5652.531497197599	8
0	16261	5655.144665282159	7
0	16266	5655.31521397233	6
0	16273	5656.803346869207	5
0	16277	5658.2482914225	6
0	16280	5659.476253932906	5
0	16287	5660.660181111073	4
0	16292	5662.647894457352	3
0	16296	5663.684506488489	4
0	16300	5664.989976496525	3
0	16309	5668.453656586167	2
0	16314	5670.671346007726	1
0	16319	5670.95133462935	0
0	16323	5672.711284425062	1
0	16325	5672.865380669102	2
0	16329	5676.386638403055	3
0	16330	5677.21213580503	2
0	16335	5678.629912662892	1
0	16339	5678.850573554037	2
0	16343	5680.402253937775	3
0	16345	5683.939011234101	2
0	16354	5687.017506237369	1
0	16360	5687.078000696727	2
0	16362	5687.255575209296	3
0	16363	5687.526976631222	2
0	16369	5687.54799363398	3
0	16372	5688.232766419633	4
0	16373	5688.290538403965	3
0	16378	5689.374491009676	2
0	16383	5692.264453488501	1
0	16387	5692.529138631766	2
0	16391	5694.133256276393	3
0	16395	5695.82338776221	4
0	16397	5696.600711377039	5
0	16400	5699.651704434494	4
0	16405	5700.167145438563	3
[...]
5	70977	24740.915079912549	8759.898799702
5	71000	24748.886984846249	8754.5543705035
5	71019	24761.147850732452	8762.4608884559
5	71024	24762.926969744107	8750.3298110882
5	71046	24772.71524445658	8746.0329752858
5	71092	24795.650259604766	8768.3778344123
5	71097	24798.162792441522	8757.9658197861
5	71106	24803.781289847252	8759.3648821225
5	71122	24806.095599986174	8759.4957168153
5	71162	24821.228058703925	8769.829173988
5	71168	24821.638606980999	8768.8428708798
5	71175	24823.356639848069	8768.4782368656
5	71184	24832.159712050888	8777.1311983832
5	71231	24851.353396732423	8795.0868630853
5	71239	24853.8761758418	8791.5496438177
5	71251	24857.108909177823	8792.4285634244
5	71258	24859.86056869032	8792.0087587105
5	71281	24864.206652287689	8794.3018827003
5	71288	24867.880359134931	8793.527173926
5	71295	24870.046757513055	8793.8498545753
5	71309	24872.748577935764	8773.1866973611
5	71399	24900.07489331889	8800.280329102
5	71458	24921.172307844903	8820.2748596044
5	71472	24925.740820901629	8809.2050519354
5	71591	24960.019953557251	8841.2343283504
5	71598	24960.790720333375	8838.4590059354
5	71610	24967.43320812076	8842.3090030746
5	71620	24969.403150581659	8842.0622912141
5	71629	24971.741589300047	8833.6234252728
5	71636	24974.021351415084	8825.9444918744
5	71644	24975.782133700255	8823.3068552675
5	71701	24993.262507500583	8835.4155833103
5	71739	24997.75826110345	8812.5939501597
5	71746	24999.56179087537	8808.4559403993
5	71758	25002.246239052198	8807.8068755068
5	71772	25004.766926251293	8808.1401888024
5	71803	25009.857718814998	8808.9705445269
5	71812	25013.841709876306	8809.1910254995
5	71830	25018.388031945337	8811.2595126091
5	71852	25030.858778537135	8814.5000880662
5	71864	25032.053509467635	8811.0542225375
5	71879	25042.530042576746	8817.6039924261
5	71909	25054.263267540326	8825.9834580497
5	71914	25054.765279450115	8823.516962504
5	71929	25063.308866107709	8827.1456328423
5	71966	25070.128570616674	8814.9818416374
5	72122	25125.765539754722	8858.8109490901
5	72128	25127.96865763578	8851.7283640131
5	72135	25129.918986520475	8849.7540618449
5	72153	25139.410743159225	8856.3030428077
5	72168	25144.925023211639	8860.1924875997
5	72192	25148.370893059892	8858.1359298548
5	72206	25153.27801157245	8861.9303428676
5	72220	25155.957037650504	8864.2969616641
5	72225	25156.599077236025	8863.1286665533
5	72232	25157.579982215428	8856.8727241868
5	72310	25178.121334227333	8875.5116036252
5	72316	25180.875239841342	8874.5741660026
5	72330	25188.381254390247	8881.8791470644
5	72347	25192.038782175714	8880.2079008229
5	72357	25196.533697748735	8873.7465022142
5	72409	25212.449011228356	8888.682665531
5	72732	25337.919868461125	9012.5225230192
5	72742	25338.775853421011	9009.6626094942
5	72752	25341.368768255705	8999.773109427
5	72798	25351.222237636619	9002.4835533553
5	72810	25356.797263669547	9004.9383683255
5	72817	25358.437351002267	8998.4479688972
5	72827	25359.775450417264	8984.0115040648
5	72835	25362.916020804937	8976.7910525289
5	72848	25365.98777976739	8969.8452229806
5	72853	25366.734530859041	8955.8350824863
5	72860	25369.3811832047	8956.9938494641
5	72885	25386.137081272193	8970.1921647505
5	72907	25392.5672489322	8962.7086442974
5	72922	25394.219349038392	8950.9416856793
5	72931	25397.151763972714	8951.4374841257
5	73185	25486.588577158136	9035.4172270136
5	73198	25491.64032224508	9035.9275029414
5	73215	25499.727255466295	9042.9416492171
5	73231	25504.608783156932	9047.5176700193
5	73300	25524.112957241593	9048.9057555491
5	73307	25524.900556441105	9048.9476723494
5	73325	25530.378674751321	9052.9445312338
5	73345	25531.577719503992	9039.296784215
5	73356	25537.274528271878	9041.4160391672
5	73371	25541.672923121938	9038.0287585733
5	73388	25549.483191075608	9036.9316287993
5	73453	25569.486035710978	9046.8168575247
5	73655	25626.400895847608	9094.0467458726
5	73661	25630.015939820597	9089.2606256874
5	73673	25636.598147956634	9080.5673864794
5	73687	25638.540150901793	9074.9501594946
5	73736	25657.498872687303	9089.5824335636
5	73741	25657.709582212233	9082.8866674306
5	73750	25662.694514716384	9084.0153185091
5	73763	25667.625297909911	9084.1406895182
5	73791	25682.987283849518	9096.7923708875
5	73808	25688.551259271988	9089.0347047098
5	74144	25804.670820871749	9201.7931730791
5	74149	25806.363613158902	9193.6788574474
5	74154	25806.983768596077	9192.9802628078
5	74161	25808.749058935677	9191.3118519007
5	74166	25815.731570890349	9195.080140126
5	74187	25826.277558755463	9200.8942020567
5	74234	25838.851517516902	9209.8315953408
5	74241	25840.880438815373	9208.8987826681
5	74255	25849.270721284778	9213.1926507005
5	74266	25859.564777902139	9217.4900666712
5	74272	25862.096456145623	9214.5350160223
5	74280	25864.826968849602	9205.6217760146
5	74289	25869.027472303438	9209.0894720947
5	74331	25878.976130243004	9198.4879277381
5	74337	25879.822609114599	9192.7771538245
5	74350	25886.53873616142	9189.0656621492
5	74460	25911.804160897545	9209.9932196643
5	74467	25912.383805888056	9207.4011518687
5	74472	25912.925287017852	9201.6792116475
5	74477	25919.865893988289	9203.3654494401
5	74484	25925.320181748537	9208.213854981
5	74499	25933.891902113497	9211.4509639321
5	74508	25936.207319328348	9205.6080104966
5	74518	25937.85675256794	9206.9750364463
5	74527	25940.842906192981	9203.6160822458
5	74567	25949.395442093858	9202.0436528408
5	74583	25952.796556453867	9204.1405502154
5	74659	25974.989475392941	9221.1991483496
5	74676	25977.515883460608	9221.2354296334
5	74758	26007.7916125883	9250.7006029424
5	74775	26012.716423576993	9249.00787069
5	74785	26012.919066491148	9239.5419512041
5	74790	26013.992343800945	9237.3683442656
5	74808	26025.881644633041	9245.17890924
5	74841	26034.002661635361	9246.8664229665
5	74855	26036.822759039633	9247.6049660387
5	74867	26041.723350903057	9242.401279623
5	74878	26044.871625777861	9242.2328992044
5	74890	26047.336868781596	9232.8384182586
5	74962	26064.558834037282	9249.0480625467
5	74973	26067.661212911345	9243.8145010705
5	74980	26071.502579570141	9245.127810108
5	74993	26075.324202193865	9241.2564525792
5	75010	26088.445562344484	9249.3226336876
5	75063	26100.250922385669	9256.5909802982
5	75071	26105.927456282524	9260.279453056
5	75101	26120.274723911542	9272.303919879
5	75142	26134.790804049821	9278.1791839095
5	75344	26212.603335470527	9348.1679111907
5	75365	26224.3861016993	9353.653784714
5	75418	26244.522730079515	9370.0230412216
5	75425	26246.052386429761	9371.0898612424
5	75430	26248.637540858977	9372.6941792209
5	75440	26251.928476045921	9375.5436539542
5	75731	26361.025450242241	9482.0769450262
5	75737	26366.8517669765	9487.0604550185
5	75742	26367.397962472809	9487.5209397565
5	75747	26367.912023076608	9485.0272350999
5	75758	26370.910582747856	9478.4708401631
5	75781	26379.710613511325	9486.5169926957
5	75798	26386.116509178269	9491.9587363613
5	75815	26389.431561258805	9494.0220570331
5	75835	26397.315739585538	9496.2996209158
5	75847	26401.697596622598	9497.5346503541
5	75885	26415.317398584769	9509.9195050602
5	76122	26501.050234833408	9592.6547374579
5	76137	26503.298059572985	9589.34698065
5	76232	26530.06806942779	9615.0203594904
5	76237	26531.178320046985	9615.1992071026
5	76249	26533.643229182142	9614.4581057252
5	76272	26542.114314619725	9619.9672098993
5	76303	26547.592594424301	9611.826034334
5	76358	26567.251641779992	9630.291376396
5	76372	26575.516066230914	9636.954428099
5	76560	26648.951719189949	9710.051620463
5	76565	26648.991289421457	9710.0102000115
5	76572	26652.559825062226	9711.2896275306
5	76579	26655.034172157934	9707.6940361578
5	76597	26659.909133585444	9707.6339685257
5	76659	26670.636302018391	9714.3470054777
5	76664	26671.875416334217	9713.7990519008
5	76680	26677.536241519557	9693.108942518
5	76791	26713.812364488736	9727.2329880599
5	76802	26715.319522359679	9728.7225248443
5	76808	26717.267700899064	9720.1519727045
5	76815	26720.075573510278	9716.2371873209
5	76830	26722.719294982684	9714.9828398328
5	76841	26728.111081014641	9719.6324368766
5	76846	26730.880565350088	9716.4545937544
5	76851	26732.877533162239	9714.2464218901
5	76857	26735.975060727258	9716.9797215222
5	76866	26736.914398976799	9714.7935632275
5	76873	26741.403936924207	9711.1902763818
5	76889	26756.476624360361	9723.1878719371
5	76940	26774.424567909678	9733.3418785962
5	76986	26785.756811148164	9742.2838122103
5	76994	26788.996866103117	9744.1082077277
5	77030	26802.356646432578	9753.4575291309
5	77042	26806.831227897986	9745.6937240791
5	77072	26822.031393138565	9754.3779369613
5	77078	26823.385694004209	9742.5463000165
5	77084	26823.71244919068	9736.8398971866
5	77090	26825.303945324793	9723.2844583556
5	77095	26825.439465967595	9721.3502406553
5	77103	26826.664871985689	9715.9554654301
5	77116	26831.683826014072	9719.9311988084
5	77343	26924.952327370606	9809.8620082459
5	77354	26928.352258582802	9812.7209782671
5	77360	26929.793468912406	9813.2217505866
5	77371	26935.096502970714	9817.3108542668
5	77391	26938.180584240981	9819.2877108736
5	77396	26938.382544777491	9811.3265402061
5	77403	26943.083545977257	9810.806454573
5	77410	26948.064124560604	9800.1930128721
5	77580	26994.685214448073	9844.7027451855
5	77588	26996.40431362008	9843.7126122411
5	77603	27005.965402887515	9841.1421930625
5	77622	27013.403896982619	9847.5875203358
5	77650	27026.56902778577	9859.0977846823
5	77663	27029.772582183229	9856.4548796983
5	77668	27029.905717596223	9845.3627351937
5	77684	27042.053288264554	9856.5244221055
5	77797	27088.516262070548	9899.8870177066
5	77807	27095.89076565233	9881.1803350353
5	77910	27129.593266866987	9906.0240669574
5	77917	27131.645150417055	9906.0373306735
5	77925	27137.200321606338	9910.0037738102
5	77940	27139.271737452346	9908.2143074626
5	78023	27174.624042210667	9938.402511809
5	78053	27183.940760431609	9945.7632389829
5	78076	27191.375138695654	9943.502190027
5	78166	27218.945907040704	9962.7347911008
5	78171	27219.929103900697	9958.234714715
5	78176	27221.544054836309	9958.4765662584
5	78189	27225.150344963744	9955.5897497652
5	78224	27235.514677736612	9961.7852268349
5	78293	27261.791394730292	9981.4227836217
5	78304	27264.44305873945	9983.8082403789
5	78355	27281.267793266975	10000.086766978
5	78360	27282.251356046501	9997.8316076931
5	78365	27284.080104204798	9999.3371644208
5	78378	27289.710193981295	10004.882836936
5	78408	27299.102397391466	10012.091693686
5	78416	27300.91644946947	10009.195772899
5	78431	27309.682738545576	10015.599119377
5	78444	27315.465614699905	10020.862015142
5	78460	27323.648676409855	10023.907645295
5	78485	27332.564728344019	10024.093399086
5	78507	27335.443152274553	10023.475031862
5	78514	27336.960476631915	10024.020613277
5	78532	27340.720122372924	10027.061052955
5	78538	27342.864114353605	10021.526734035
5	78545	27345.402601351138	10023.513635304
5	78558	27363.134257794575	10040.39710241
5	78635	27383.460961557116	10054.609760537
5	78641	27390.529845836146	10061.171539429
5	78648	27393.570585143251	10063.991436272
5	78653	27395.232888005653	10057.280688035
5	78665	27400.550944566583	10061.280159274
5	78679	27405.532970562339	10018.529971353
5	78689	27409.371942858438	10020.837639588
5	78869	27471.968428532111	10082.514832748
5	78893	27479.206713767338	10085.416835807
5	78899	27480.610009320352	10086.414440014
5	78904	27481.902376828224	10086.354564684
5	78914	27485.219746340105	10088.338984595
5	78978	27509.955655552987	10104.870708122
5	78989	27513.806224245289	10099.387893133
5	79058	27540.555336627379	10125.424810145
5	79065	27541.203684990931	10120.743395535
5	79194	27603.156049038361	10181.117712063
5	79419	27694.611265693464	10268.7084388
5	79426	27696.941480887421	10265.698709821
5	79431	27697.38385728633	10264.316523318
5	79436	27702.247997026714	10268.923627931
5	79445	27707.899677891904	10267.437776622
5	79462	27714.324047948098	10267.747349572
5	79483	27719.000910338441	10269.691205778
5	79496	27719.946714659733	10257.432828988
5	79510	27728.11707200644	10261.618896264
5	79522	27736.704390341441	10255.719783417
5	79541	27739.959985449415	10251.912103678
5	79551	27741.591978200619	10242.065566796
5	79588	27749.619187869415	10235.936462185
5	79599	27755.494252488215	10233.677140511
5	79620	27763.4514853941	10241.466970638
5	79645	27770.139005530645	10243.359694792
5	79662	27774.261480182106	10231.011358391
5	79677	27779.067170780732	10232.426100707
5	79693	27783.934266041964	10229.418114277
5	79700	27784.73332833535	10229.934315449
5	79705	27785.351938610687	10228.113128708
5	79716	27792.393707438059	10231.761892256
5	79838	27823.657820980226	10256.511073947
5	79903	27842.148879069494	10274.065838073
5	79908	27842.318079829788	10264.359101382
5	79915	27846.971798662613	10235.005659141
5	79930	27848.120236008748	10224.011557308
5	79954	27857.182511750808	10216.059048587
5	80070	27897.048917068817	10253.466893335
5	80075	27897.388793904112	10248.819361962
5	80084	27900.216157044093	10245.947835609
5	80102	27906.819799553877	10247.974061167
5	80114	27908.47481524078	10238.026706044
5	80120	27911.273313501534	10219.067085154
5	80137	27917.520180700302	10218.562364267
5	80263	27959.866176080819	10255.009126495
5	80269	27960.514930635698	10238.357618718
5	80274	27960.714677468112	10220.73222354
5	80280	27961.89724024564	10221.19370085
5	80285	27966.92755693198	10225.547228868
5	80292	27971.811043348133	10222.285005623
5	80299	27977.717439623917	10227.689714867
5	80304	27980.597515421836	10227.108667029
5	80314	27984.819911910644	10229.098764789
5	80326	27988.870597632816	10232.960548763
5	80331	27989.181942913138	10228.826871702
5	80339	27992.938346482202	10229.900951068
5	80352	27996.56750006301	10223.814220029
5	80446	28028.624997364961	10253.947074134
5	80453	28029.919011540097	10255.144658085
5	80467	28034.65985657567	10252.552628889
5	80474	28039.220458721373	10254.611594784
5	80484	28039.917148433869	10241.392275307
5	80489	28041.23235162734	10196.872361957
5	80500	28045.879835946202	10200.591169959
5	80505	28046.371504838671	10200.550611685
5	80510	28047.468401755619	10199.509846376
5	80519	28054.127665453355	10198.016849623
5	80548	28062.985086617707	10202.527426939
5	80553	28063.144391785297	10195.294396142
5	80575	28075.353565769511	10190.334399582
5	80743	28132.565667660655	10245.590434225
5	80761	28139.773169997883	10250.45756234
5	80775	28142.481464336282	10244.09973376
5	80795	28148.301812445106	10248.807175177
5	80800	28148.388054025349	10246.086311854
5	80809	28150.192263323839	10246.489504839
5	80833	28159.030744021409	10227.619623645
5	80878	28169.468560094348	10230.699554325
5	80887	28172.157238493438	10231.683453745
5	81151	28252.46736105481	10310.749397328
5	81207	28285.3999562881	10340.099054785
5	81214	28287.382295005767	10334.175388584
5	81228	28293.546165319107	10339.424256874
5	81246	28297.449473206779	10332.068014008
5	81257	28305.674967647697	10339.196039422
5	81288	28312.348250859791	10343.797045763
5	81344	28329.88317711096	10348.269827446
5	81353	28332.018627975693	10346.663608893
5	81358	28335.216145301979	10349.029937029
5	81365	28336.240519839963	10344.606206689
5	81399	28341.912819367516	10339.471506385
5	81414	28346.168518875365	10341.642156515
5	81421	28350.008342052306	10335.424661081
5	81435	28354.81314768382	10339.976909611
5	81444	28358.727967538523	10330.634595476
5	81465	28365.895361175203	10333.916236417
5	81502	28378.114116695109	10342.279559116
5	81818	28476.448205320374	10438.825366075
5	81827	28481.678133375836	10439.035513539
5	81859	28494.49343405405	10446.318298729
5	81873	28497.662123665675	10447.718145351
5	81909	28511.915069614919	10461.954853241
5	81916	28516.994715129187	10461.069446818
5	81942	28528.503797346829	10456.893276042
5	82032	28554.107429174206	10480.475924329
5	82041	28555.741870402285	10480.691771491
5	82049	28560.060889215227	10483.329974673
5	82056	28560.732463070985	10466.288220723
5	82071	28565.288399642834	10470.560485636
5	82096	28577.343470203526	10473.26253378
5	82103	28582.908602753208	10475.355102452
5	82135	28598.756239186196	10471.698072957
5	82140	28601.131638294101	10470.998713595
5	82151	28611.147770436123	10462.174529831
5	82214	28629.256991750078	10474.677692912
5	82227	28635.45646752854	10479.234033532
5	82881	28883.17895351029	10725.693510589
5	82921	28890.375609074844	10732.421637851
5	82938	28897.469357969583	10727.907029468
5	82978	28907.663997194527	10734.804518479
5	82987	28911.151587625633	10735.580816144
5	83226	28983.931144524673	10799.862049763
5	83237	28987.210353413066	10801.782233903
5	83264	28994.897686619956	10803.61065298
5	83269	28995.002863032511	10797.967902638
5	83278	28996.584415568301	10796.652798787
5	83298	29006.021418836551	10805.081491401
5	83303	29006.462533518326	10801.610712404
5	83309	29007.603616594291	10801.725102715
5	83316	29008.749845900029	10790.225915465
5	83335	29014.367339385346	10795.052768394
5	83440	29053.716006188029	10820.458345295
5	83453	29055.020978205278	10813.390261132
5	83463	29058.14681882217	10812.149028469
5	83472	29059.690416200905	10797.052459081
5	83509	29072.031683955299	10792.486769617
5	83547	29079.142962208613	10783.82819883
5	83553	29079.802047203105	10783.241881806
5	83561	29082.196771176832	10785.168575316
5	83583	29090.856174774749	10791.104857672
5	83589	29091.199363123702	10787.85456944
5	83600	29093.43017546704	10788.858165973
5	83631	29099.517664251616	10793.632170122
5	83636	29100.296406994511	10794.105729168
5	83643	29102.602103851388	10794.22021237
5	83658	29107.255385621537	10793.895687448
5	83675	29112.984036461312	10797.538342082
5	83682	29115.500385762918	10796.309068137
5	83702	29117.964958221122	10791.542290153
5	83719	29123.376286599092	10781.164649759
5	84093	29246.583593490301	10904.345787761
5	84112	29248.863900827244	10904.884074795
5	84128	29251.470900383324	10900.319568755
5	84198	29276.400738119862	10911.370861271
5	84208	29278.514592321608	10912.857953512
5	84264	29293.00724454631	10925.418876216
5	84327	29314.014271846713	10940.597204304
5	84347	29319.491409454338	10934.988464194
5	84352	29323.83131146883	10921.06866903
5	84365	29332.452045161366	10927.324975357
5	84439	29344.83201467795	10933.707876879
5	84454	29349.46671740487	10933.350904359
5	84480	29357.060476184182	10940.928701535
5	84576	29385.424731467728	10962.326499036
5	84603	29390.919171253754	10965.816260139
5	84608	29391.244501825915	10959.56600386
5	84615	29393.801638109039	10959.29813222
5	84642	29407.648579739453	10972.802213394
5	84653	29414.698054873583	10977.518037322
5	84663	29419.256073863921	10981.794486439
5	84671	29421.30969116597	10975.711063642
5	84679	29424.960909219113	10975.888045573
5	84689	29427.102447067897	10974.18550548
5	84695	29428.199995889483	10974.109804795
5	84700	29430.076572930501	10969.700019115
5	84713	29433.850840674429	10951.874212605
5	84748	29443.663139512891	10955.307709072
5	84842	29482.286028500636	10989.333984227
5	84858	29486.325264007939	10991.641116169
5	85064	29562.820610679426	11067.980099912
5	85544	29716.969452514834	11219.697430115
5	85602	29731.797839910904	11231.177234406
5	85617	29737.878939404814	11231.683633237
5	85651	29747.270571419767	11237.396822108
5	85656	29748.32953471867	11226.298544762
5	85661	29751.767274770078	11219.128659035
5	85666	29755.485151256758	11221.586242006
5	85671	29756.52236925074	11216.336390261
5	85676	29764.135312519551	11203.907246638
5	85681	29770.2524917886	11204.716017655
5	85686	29772.18535784194	11204.978176729
5	85693	29776.223948369073	11203.720193738
5	85711	29780.097211062013	11203.735453682
5	85718	29781.435389262636	11203.023139319
5	85723	29785.51820629477	11206.660973248
5	85731	29790.039884620111	11200.794093755
5	85755	29794.228977741917	11203.046815915
5	85766	29798.637677559697	11205.874063383
5	85779	29802.288930067698	11205.876048257
5	86186	29966.000318409754	11367.423215813
5	86197	29970.013550571579	11357.482065513
5	86208	29973.793900267061	11358.181142381
5	86246	29986.952885362495	11364.739168142
5	86251	29988.488812251739	11355.489112081
5	86256	29990.749402372133	11355.434620497
5	86263	29993.367088478972	11357.104697972

