version 2
run Third-n5-14-20191016-14:54:02-8364
attr configname Third-n5
attr datetime 20191016-14:54:02
attr experiment Third-n5
attr inifile omnetpp.ini
attr iterationvars ""
attr iterationvarsf ""
attr measurement ""
attr network org.omnetpp.queueing.Pizza
attr processid 8364
attr repetition 14
attr replication ""
attr resultdir results
attr runnumber 14
attr seedset 14
param **.PS.maxInventoriedPS 5
param **.U1.interArrivalTime exponential(4s)
param **.U2.interArrivalTime exponential(6s)
param **.PS.serviceTimeForInventoryU1 exponential(1.4s)
param **.PS.serviceTimeForInventoryU2 exponential(1.4s)
param **.PS.serviceTimeDirectU1 exponential(1.8s)
param **.PS.serviceTimeDirectU2 exponential(1.8s)
param **.PS.probabilityProducing 0.8
param **.CS.serviceTimeU1 exponential(2.3s)
param **.CS.serviceTimeU2 exponential(2.3s)

vector 0 Pizza.EntryQueueU1 queueLength:vector ETV
attr interpolationmode sample-hold
attr title "queue length, vector"
vector 1 Pizza.CS queueLength:vector ETV
attr interpolationmode sample-hold
attr title "queue length, vector"
vector 2 Pizza.EntryQueueU2 queueLength:vector ETV
attr interpolationmode sample-hold
attr title "queue length, vector"
vector 3 Pizza.sink lifeTime:vector ETV
attr interpolationmode none
attr title "lifetime of arrived jobs, vector"
attr unit s
vector 4 Pizza.sink lifeTimeU2:vector ETV
attr interpolationmode none
attr title "lifetime of arrived jobs, vector"
attr unit s
0	0	0	0
0	26	12.921474105548	1
0	29	13.601412545419	0
0	77	31.117772538856	1
0	79	31.465887128178	2
0	81	31.574568107782	3
0	84	37.065145885664	4
0	86	37.322660226112	5
0	87	38.909047618395	4
0	97	42.029640834274	3
0	104	43.413621131833	2
0	109	44.410184263617	1
0	118	47.194901536928	2
0	119	48.297331162658	1
0	124	49.07828176947	0
0	152	69.426316817313	1
0	158	74.428094700843	2
0	162	74.894468868166	3
0	166	77.685662747925	4
0	167	78.643122579993	3
0	173	80.874283870544	2
0	178	81.248544580741	1
0	185	82.930641184754	2
0	186	83.369508308615	1
0	191	83.586163597347	0
0	197	83.594980041333	1
0	200	86.62903918852	0
0	206	87.359980379672	1
0	207	88.260787358155	0
0	221	90.716647360197	1
0	226	92.208843940101	0
0	234	93.232188467014	1
0	238	95.272737561617	2
0	239	96.042427731373	1
0	244	96.265950591267	0
0	250	96.565941530557	1
0	254	98.8441270289	2
0	258	102.355376136468	1
0	264	104.111950827682	0
0	271	110.787790916854	1
0	272	112.703560129612	0
0	278	113.331324532078	1
0	280	115.128597358311	0
0	292	116.796000350342	1
0	294	117.089130226559	0
0	311	118.163124885344	1
0	313	118.788847291697	2
0	314	120.692101532394	1
0	319	121.470342796281	0
0	336	126.480373795793	1
0	338	126.776037086297	2
0	340	131.26498373483	1
0	346	131.796335133061	0
0	352	132.025866472473	1
0	355	132.80783181522	2
0	356	133.020459997037	1
0	366	134.512123997889	2
0	367	136.330095670688	1
0	373	136.649794934777	2
0	376	137.701382554197	3
0	377	137.820359024155	2
0	383	138.972284113043	3
0	384	140.063432943857	2
0	390	140.762164743288	1
0	396	141.544804919258	2
0	402	145.110663311011	1
0	407	146.782507241664	0
0	468	163.839585764098	1
0	471	165.505989774701	0
0	485	168.505493101729	1
0	493	172.147248708182	2
0	494	172.735730167104	1
0	501	173.960568252151	2
0	502	174.523581563287	1
0	509	175.195278367785	2
0	511	175.784578607713	3
0	512	176.735054759747	2
0	518	177.676430430843	3
0	521	179.806501752187	4
0	528	188.507881346865	3
0	535	192.071286166531	4
0	537	193.092888063416	5
0	539	197.007033938794	6
0	545	199.429937724796	7
0	546	200.936103534514	6
0	554	202.528514617722	7
0	555	202.885466173277	6
0	563	207.188243357683	7
0	564	209.529912061633	6
0	571	210.689208695673	5
0	583	214.391302828319	4
0	589	215.098361460511	3
0	595	216.217378285332	2
0	600	216.455492835029	1
0	606	218.143285358394	0
0	629	222.635627233131	1
0	630	223.867013454022	0
0	669	235.538823399826	1
0	670	236.351176703199	0
0	723	251.136580400642	1
0	724	251.357265384834	0
0	732	255.366889736372	1
0	733	257.728032347383	0
0	747	260.97905130754	1
0	748	261.585629582632	0
0	755	263.385979073608	1
0	759	266.118961707271	2
0	760	267.426926737492	1
0	766	268.586385707729	2
0	767	269.645510237843	1
0	774	271.024921845323	0
0	821	289.682939313529	1
0	823	289.773541224725	2
0	827	291.671960812001	3
0	828	292.117911155514	2
0	838	294.23568545676	3
0	839	294.903942923316	2
0	844	295.582586202586	1
0	849	295.727977566914	0
0	855	295.852324535078	1
0	856	299.19995384195	0
0	864	301.129532896025	1
0	866	304.968361092672	2
0	867	305.136985919444	1
0	874	306.860273565962	0
0	883	309.407916013364	1
0	884	309.900575561024	0
0	896	311.796401629928	1
0	898	312.858584609149	2
0	901	314.969316872354	3
0	905	315.373298930762	4
0	906	316.260728599856	3
0	912	318.011187031397	4
0	915	318.631525841594	5
0	917	319.459330702565	6
0	918	321.203862075591	5
0	926	330.735012822517	4
0	933	331.578543402253	3
0	938	332.654613505525	2
0	947	335.016411513668	3
0	950	336.849747867994	4
0	953	339.59572239705	5
0	954	340.441249057562	4
0	959	341.100951134801	3
0	967	344.505829453629	4
0	970	349.769994936661	3
0	979	353.679071430012	4
0	981	355.114791977291	5
0	982	356.398249845567	4
0	987	357.100601752645	3
0	993	357.672397726445	2
0	1000	358.296331555273	3
0	1002	360.382929232834	4
0	1004	360.713151623278	5
0	1006	364.001511604463	6
0	1008	364.778871081777	7
0	1009	365.764994424899	6
0	1017	372.876462241747	7
0	1018	373.161444003885	6
0	1023	374.719337362789	5
0	1029	375.003203777501	6
0	1034	379.107706576667	7
0	1035	379.417812849863	6
0	1040	381.35419780232	5
0	1045	381.49326169891	4
0	1052	383.471861996168	5
0	1058	386.63316190041	6
0	1059	386.735005967345	5
0	1065	387.604760808881	6
0	1067	387.891271901554	7
0	1072	389.212797807743	6
0	1078	389.89848473261	7
0	1081	392.083700639632	8
0	1082	392.188715638561	7
0	1088	394.597066687465	6
0	1094	395.891766603167	5
0	1099	397.345550300262	4
0	1105	398.109417166063	5
0	1107	398.934019263305	6
0	1109	399.709580309715	7
0	1111	404.224005769955	8
0	1113	404.781670428051	9
0	1117	410.918761528082	10
0	1120	413.139679500839	9
0	1125	413.474954750094	8
0	1129	414.144154215337	9
0	1131	416.07611773176	10
0	1134	416.93030985376	9
0	1140	421.206120063496	10
0	1142	421.994933228674	11
0	1143	423.858162538033	10
0	1147	424.324097194235	11
0	1152	426.019754330415	10
0	1159	428.345993357615	9
0	1167	432.93391361947	8
0	1172	432.989266915648	7
0	1177	434.079996370743	6
0	1188	439.313573436955	7
0	1189	440.040467934498	6
0	1194	440.058338101644	5
0	1201	441.210589812012	4
0	1206	441.321202792089	3
0	1212	442.180135907247	4
0	1213	442.294907245198	3
0	1223	445.349427417988	4
0	1225	445.995322074653	5
0	1227	446.757584398687	6
0	1229	448.077229823204	7
0	1230	449.074414712035	6
0	1235	449.527737786418	5
0	1240	450.688898962298	4
0	1248	453.467863735319	3
0	1256	455.524924046556	4
0	1259	458.309525422557	5
0	1261	458.943700398938	6
0	1263	459.06428398997	7
0	1265	461.393040252576	8
0	1268	466.165035745345	7
0	1273	469.380911965947	6
0	1279	471.713951816936	5
0	1290	475.546673783858	4
0	1295	476.154918033846	3
0	1305	479.264304791019	2
0	1312	480.132899580689	1
0	1318	482.058920651805	0
0	1344	490.939943210964	1
0	1348	493.153637237515	2
0	1356	496.245271171856	3
0	1357	498.579366459379	2
0	1363	498.869143142225	1
0	1369	500.48501740011	2
0	1371	501.833782721268	3
0	1373	502.398610293274	2
0	1380	505.213675062048	3
0	1382	508.553859704676	4
0	1384	511.751689720065	5
0	1387	513.037273673686	4
0	1392	513.298591775976	3
0	1397	514.000849261213	2
0	1405	515.77193239868	1
0	1411	516.712076232228	0
0	1422	517.539608585833	1
0	1423	517.541527867324	0
0	1455	530.969495877949	1
0	1456	533.130028752016	0
0	1462	533.884249665216	1
0	1465	535.950298225003	0
0	1477	540.359809426747	1
0	1478	542.744539447907	0
0	1496	549.360080118029	1
0	1499	550.598209247013	2
0	1500	550.861764485194	1
0	1507	551.606878050372	2
0	1509	552.962925597659	1
0	1515	553.839027127258	2
0	1516	554.442914667616	1
0	1526	559.634266145425	0
0	1538	564.923208448431	1
0	1540	565.175678945594	2
0	1541	571.459272927222	1
0	1546	571.703676482137	0
0	1552	571.830135891346	1
0	1556	572.0007752003	2
0	1561	575.244791401483	3
0	1566	580.721781669957	4
0	1569	583.476903732887	5
0	1579	588.066214372146	6
0	1581	588.430037309863	7
0	1582	588.756057156684	6
0	1588	589.440175560536	7
0	1590	589.541154754321	8
0	1596	592.172238092723	7
0	1601	592.574464221489	6
0	1606	593.746747126885	5
0	1612	594.404126789247	6
0	1614	594.434770416758	7
0	1619	597.722854296482	8
0	1621	597.954258954679	9
0	1623	600.318938498274	8
0	1628	600.327404145554	7
0	1633	600.440107230861	6
0	1639	601.018169537913	7
0	1644	602.087998139765	8
0	1652	613.631088961476	7
0	1657	614.631193917967	6
0	1663	615.155509299375	7
0	1667	615.723040399743	8
0	1668	616.407959166627	7
0	1673	617.614629081054	6
0	1681	620.042695520456	7
0	1682	620.616870874054	6
0	1688	621.253230314243	7
0	1693	625.346028663109	6
0	1701	629.158721835853	5
0	1707	630.765202980218	4
0	1714	631.034757362162	3
0	1719	632.33212457466	2
0	1729	638.867973966459	1
0	1736	640.98390639059	0
0	1780	647.732444857014	1
0	1786	648.651622844451	2
0	1788	648.725121614962	3
0	1790	648.832630010453	4
0	1792	649.600755894348	5
0	1794	650.220422094306	6
0	1795	650.337075302911	5
0	1802	652.096715649494	6
0	1804	652.879479526899	7
0	1805	656.232744866306	6
0	1811	656.681316731604	5
0	1819	658.975639595574	4
0	1825	660.753131440317	5
0	1826	661.400900407965	4
0	1835	664.194454390895	5
0	1836	665.192045249531	4
0	1842	666.046114709402	3
0	1848	666.367477400068	4
0	1852	668.013589539147	5
0	1854	669.055330577689	4
0	1860	670.336891866254	3
0	1871	675.531921755701	2
0	1877	675.602070102056	3
0	1878	675.604697290958	2
0	1884	675.703626771717	3
0	1885	677.107834565325	2
0	1890	677.403214777835	1
0	1896	678.419222881467	2
0	1897	679.767214262942	1
0	1902	679.860663632115	0
0	1928	684.041412241908	1
0	1932	686.55814877598	0
0	1939	689.062281551857	1
0	1943	692.063634696771	0
0	1956	693.726511440961	1
0	1960	696.697684268981	0
0	1996	714.090633121343	1
0	1997	714.368516601795	0
0	2010	716.058814328903	1
0	2012	717.233565324191	2
0	2015	718.395651299073	1
0	2021	718.935545348706	0
0	2032	719.816160761407	1
0	2034	721.665724552606	2
0	2036	722.654221568944	3
0	2038	725.053101021005	2
0	2043	725.156225481677	1
0	2048	725.409960094778	0
0	2074	735.199295792966	1
0	2081	742.685923962729	2
0	2082	742.981524597338	1
0	2090	750.089539612084	0
0	2113	767.042639426272	1
0	2115	768.535247373977	2
0	2116	770.646221660039	1
0	2122	773.135507717502	0
0	2137	776.896167983381	1
0	2138	778.121972699685	0
0	2152	782.124458777439	1
0	2153	782.156918653054	0
0	2163	784.494053412379	1
0	2172	786.316686544935	2
0	2173	787.061656722598	1
0	2179	787.190860491612	2
0	2181	788.077697092365	3
0	2182	788.337873773618	2
0	2188	789.42467829649	3
0	2190	790.860063160261	2
0	2201	797.280323711185	1
0	2206	797.563458121841	0
0	2212	797.980517007723	1
0	2215	800.701715059786	0
0	2226	802.774395366199	1
0	2227	804.797471553253	0
0	2233	805.009901301282	1
0	2239	806.905786804679	0
0	2245	807.015083664221	1
0	2249	807.730230970962	2
0	2251	808.794853533276	1
0	2259	810.708875809237	0
0	2291	821.184445581517	1
0	2293	823.353935000532	2
0	2295	823.543714416874	3
0	2296	824.131451402524	2
0	2303	826.682159445763	1
0	2309	829.694995055347	0
0	2315	829.868424293856	1
0	2317	830.841865510264	0
0	2325	832.687486255615	1
0	2326	836.355123305033	0
0	2337	836.794925068073	1
0	2338	837.237861505882	0
0	2346	838.311161072398	1
0	2350	841.198622053938	2
0	2352	841.68479509841	3
0	2355	842.941768095558	2
0	2360	843.978768581337	1
0	2369	846.838646619331	0
0	2391	849.912426920434	1
0	2393	850.331200652471	2
0	2396	853.508695414668	1
0	2401	854.882894010834	0
0	2407	856.384675138813	1
0	2412	859.109532725455	0
0	2459	868.8112707363	1
0	2461	869.204037462401	2
0	2463	870.376602006021	3
0	2465	870.864486809053	4
0	2466	873.555203154879	3
0	2471	873.583480837585	2
0	2476	873.737280796885	1
0	2482	875.121593481896	2
0	2483	876.261646524026	1
0	2489	879.919995430807	0
0	2501	882.295231652913	1
0	2506	886.054254696524	2
0	2508	886.656519085018	3
0	2512	889.611782299116	4
0	2514	893.096531190071	3
0	2520	895.162905445071	2
0	2525	895.463474408599	1
0	2535	898.730141012815	2
0	2536	900.335074149774	1
0	2541	900.851302622287	0
0	2553	902.9427701153	1
0	2554	903.300381694698	0
0	2574	912.207332632037	1
0	2575	913.31502117794	0
0	2588	916.911243469615	1
0	2589	917.362820934274	0
0	2649	938.880201053642	1
0	2652	941.404833091563	0
0	2678	949.650118912666	1
0	2683	951.896253343564	0
0	2692	952.999297516403	1
0	2696	954.174283949801	2
0	2698	954.503552905485	3
0	2703	958.54359929983	2
0	2710	960.010238673974	3
0	2711	960.193642933853	2
0	2717	961.984489985971	3
0	2718	962.015843808441	2
0	2725	967.116017904452	3
0	2727	967.482165869316	4
0	2728	968.656613033312	3
0	2736	970.405098938402	4
0	2737	970.74909161652	3
0	2743	973.350881546383	2
0	2750	974.375988494669	1
0	2755	974.424492584636	0
0	2762	975.29312009494	1
0	2763	975.942420072693	0
0	2771	979.487665202008	1
0	2773	979.600997032108	2
0	2775	990.148420504962	3
0	2782	996.471756027234	2
0	2788	997.331449433189	1
0	2794	997.602531746664	0
0	2813	1003.104151221743	1
0	2814	1004.495439958888	0
0	2821	1006.713846347142	1
0	2823	1008.232772120518	2
0	2824	1008.926036051973	1
0	2832	1010.279455364278	2
0	2834	1011.083094341157	3
0	2837	1011.697698020921	2
0	2843	1011.816869173548	3
0	2846	1012.14881950589	4
0	2848	1012.80777882446	3
0	2854	1014.057273112787	2
0	2861	1015.8485013428	1
0	2869	1017.394277833809	0
0	2884	1020.460562637648	1
0	2888	1025.876645756343	2
0	2889	1025.937331724114	1
0	2895	1027.678012187428	0
0	2902	1028.322964357248	1
0	2904	1029.726352484175	2
0	2908	1030.449653893361	3
0	2911	1031.67868560556	2
0	2919	1033.114523824204	1
0	2930	1037.333371920659	0
0	2942	1038.867974543138	1
0	2943	1039.131134787257	0
0	2949	1039.75565859771	1
0	2950	1040.327096314423	0
0	2978	1048.018899413717	1
0	2980	1048.093167301912	2
0	2983	1050.43268839637	1
0	2991	1053.306769477427	0
0	3016	1061.344659826926	1
0	3019	1063.190144727199	0
0	3028	1063.3573335938	1
0	3032	1064.29732653303	2
0	3034	1065.579006746046	3
0	3041	1067.823276939153	2
0	3048	1068.977409078093	3
0	3050	1072.081810949601	4
0	3052	1073.223003509035	5
0	3053	1073.291788089082	4
0	3058	1073.785492147521	3
0	3066	1078.973011690966	2
0	3071	1079.38692882952	1
0	3076	1080.628995965242	0
0	3088	1083.583311355118	1
0	3091	1085.442285071613	0
0	3098	1085.688529123625	1
0	3099	1086.765059244513	0
0	3158	1108.135152480919	1
0	3163	1112.030509244085	0
0	3175	1115.645461008318	1
0	3177	1116.321425938645	2
0	3180	1118.690844084026	1
0	3187	1120.159136225611	2
0	3188	1123.405303664703	1
0	3193	1123.53403946632	0
0	3223	1138.217217390963	1
0	3227	1139.713677768473	2
0	3230	1141.431136221788	1
0	3235	1141.626726944007	0
0	3249	1148.020684313571	1
0	3250	1148.117664702037	0
0	3257	1149.212366827666	1
0	3260	1150.803963395971	2
0	3261	1151.199561196161	1
0	3266	1151.446349317187	0
0	3275	1152.569733359856	1
0	3282	1159.274223679292	2
0	3285	1160.403697659726	1
0	3290	1160.417576880325	0
0	3296	1164.621466017992	1
0	3299	1165.88342683349	2
0	3301	1167.21870447669	3
0	3302	1167.434122108845	2
0	3307	1168.166823839699	1
0	3316	1170.534340581099	0
0	3323	1172.494997035482	1
0	3324	1173.154898376135	0
0	3330	1173.937858857672	1
0	3332	1174.005577764594	2
0	3333	1174.780177849187	1
0	3339	1175.671565257823	0
0	3350	1176.624423089727	1
0	3354	1177.280492646617	2
0	3357	1180.82882439737	1
0	3362	1181.332457124135	0
0	3375	1187.267472796714	1
0	3377	1188.557648046712	0
0	3384	1189.909945204447	1
0	3385	1191.119638026813	0
0	3391	1191.453404523802	1
0	3392	1191.897525641925	0
0	3398	1192.037837608399	1
0	3400	1192.674032544687	2
0	3405	1194.197925370038	3
0	3407	1194.27731161205	2
0	3419	1195.340069669749	1
0	3425	1196.769190018244	0
0	3442	1199.343846991988	1
0	3443	1200.139196013112	0
0	3455	1203.85604338678	1
0	3459	1204.569870695461	0
0	3470	1205.966272759463	1
0	3475	1207.778605229107	2
0	3476	1208.262698759895	1
0	3483	1209.847162588163	0
0	3490	1213.569313582451	1
0	3491	1215.393460510043	0
0	3529	1225.439403313865	1
0	3532	1226.037008082012	2
0	3533	1227.856672897049	1
0	3538	1228.232560842059	0
0	3556	1229.586677902748	1
0	3557	1229.658712957315	0
0	3581	1238.416063884455	1
0	3582	1239.228096542261	0
0	3588	1239.319768462639	1
0	3590	1244.100229021404	0
0	3612	1253.159550288844	1
0	3614	1253.395168331478	2
0	3618	1253.787637007489	3
0	3622	1254.609376520714	4
0	3623	1257.377918755427	3
0	3632	1259.894919974138	4
0	3634	1262.690518137633	5
0	3636	1265.178642491486	6
0	3638	1265.727489343875	7
0	3641	1267.748154009929	6
0	3647	1269.395899526647	5
0	3656	1271.845578793951	6
0	3661	1276.294621479917	5
0	3667	1276.792625345883	4
0	3677	1277.943849896167	5
0	3679	1278.090617160464	6
0	3682	1279.006199082287	7
0	3683	1279.433649181526	6
0	3688	1281.137570537808	5
0	3695	1281.675070519703	6
0	3697	1282.6257754985	5
0	3702	1282.789331384624	4
0	3707	1282.955759033138	3
0	3712	1283.34105435694	2
0	3720	1284.112330929759	3
0	3722	1284.401076269994	2
0	3731	1286.942495631076	1
0	3737	1287.234179621641	2
0	3740	1290.851489239177	1
0	3745	1293.525203064968	0
0	3767	1296.801798065261	1
0	3773	1298.057081203246	2
0	3776	1299.190270351357	3
0	3778	1299.830517758958	2
0	3784	1301.751716902786	1
0	3790	1303.659213373373	0
0	3802	1306.107059597231	1
0	3805	1307.094299806865	2
0	3807	1307.692465414814	3
0	3808	1313.094592195254	2
0	3813	1313.642075484505	1
0	3818	1313.994187546157	0
0	3834	1316.728990633841	1
0	3837	1317.912192444441	0
0	3862	1331.692463554807	1
0	3863	1332.96765271647	0
0	3878	1344.30012494559	1
0	3882	1344.536779487132	2
0	3885	1346.595634315601	1
0	3896	1351.407130888673	0
0	3921	1359.601094835841	1
0	3923	1361.159109747057	2
0	3925	1365.070897068106	3
0	3928	1366.307277336641	2
0	3936	1369.519166281457	1
0	3947	1371.044967412676	2
0	3949	1371.138215475438	3
0	3952	1372.901571330877	2
0	3957	1374.469479826707	1
0	3963	1375.888780113274	2
0	3965	1375.903583410068	3
0	3968	1377.410731251738	2
0	3973	1379.00974091942	1
0	3978	1380.285072609247	0
0	3986	1384.587931836248	1
0	3988	1388.628291029956	0
0	4014	1396.04052885042	1
0	4016	1396.307337501575	2
0	4019	1399.560913211215	1
0	4024	1401.508585595015	0
0	4037	1407.159889591515	1
0	4039	1408.338933889053	2
0	4041	1408.868277737946	3
0	4043	1409.811509166062	2
0	4049	1410.157318585135	1
0	4057	1413.922993214643	2
0	4059	1414.908842582366	3
0	4061	1415.811622500724	2
0	4066	1417.249399086278	1
0	4073	1418.999848486963	0
0	4087	1422.027158995868	1
0	4090	1422.801167819965	0
0	4107	1425.770950971573	1
0	4108	1426.062505220556	0
0	4138	1435.961070382462	1
0	4142	1436.852650546282	2
0	4144	1438.303106659273	1
0	4150	1438.544533590084	2
0	4153	1440.972065637097	1
0	4158	1441.03851715983	0
0	4174	1444.045247190424	1
0	4176	1444.518950352983	2
0	4178	1446.683863428639	1
0	4184	1447.558385290039	0
0	4209	1460.251249221002	1
0	4211	1462.637437495345	2
0	4214	1467.476875747611	1
0	4223	1472.109635949197	2
0	4226	1473.085386156821	1
0	4231	1476.489417273004	0
0	4248	1480.055996955798	1
0	4253	1482.963326662883	2
0	4254	1483.224717491477	1
0	4262	1484.759801915293	0
0	4273	1487.149310375529	1
0	4275	1488.054166332874	2
0	4278	1489.453508785977	3
0	4282	1491.679509460955	4
0	4285	1494.335289977744	5
0	4287	1494.594935900002	6
0	4291	1498.716570984062	7
0	4292	1500.852258830228	6
0	4298	1503.544983703168	5
0	4310	1507.73380192639	4
0	4316	1507.926327045956	5
0	4322	1509.339154876436	4
0	4327	1509.540138770883	3
0	4334	1510.84718096914	2
0	4339	1511.985284610369	1
0	4345	1513.39490978275	0
0	4375	1521.951433038212	1
0	4377	1522.666064479437	2
0	4379	1526.154308808808	3
0	4381	1526.559047800299	4
0	4382	1526.610541315996	3
0	4390	1527.94360347308	2
0	4396	1528.74101673576	3
0	4397	1529.022950203881	2
0	4402	1529.450135195184	1
0	4408	1529.974207663364	2
0	4409	1530.03545175433	1
0	4415	1530.283634169448	2
0	4416	1530.437721601036	1
0	4420	1530.563118197746	2
0	4422	1531.180982634207	3
0	4424	1533.083575953845	4
0	4430	1533.946500045386	5
0	4432	1534.024297195583	6
0	4433	1535.569650609827	5
0	4438	1538.073416107445	4
0	4445	1539.829142635936	3
0	4456	1542.753723745728	4
0	4460	1545.898354449651	5
0	4461	1546.288011086622	4
0	4466	1546.750035979346	3
0	4471	1548.588147555607	2
0	4477	1550.627900307549	1
0	4488	1557.115156886823	0
0	4526	1562.409605632973	1
0	4527	1562.668601824045	0
0	4533	1562.899913446937	1
0	4538	1565.94649799927	0
0	4544	1566.072027047644	1
0	4547	1566.952778466134	0
0	4558	1570.971124783594	1
0	4559	1571.393447602049	0
0	4581	1575.711905660026	1
0	4586	1581.54245164356	0
0	4603	1585.620204595128	1
0	4605	1585.844608297071	2
0	4606	1587.827327430245	1
0	4612	1588.817673228527	0
0	4618	1589.282947482917	1
0	4621	1589.978720617303	0
0	4634	1593.082750702035	1
0	4636	1595.093047609273	2
0	4638	1596.584456340738	3
0	4639	1596.634815674888	2
0	4645	1597.158162127171	1
0	4650	1599.613428622492	0
0	4656	1599.929026589859	1
0	4657	1600.093852722951	0
0	4678	1613.232043908928	1
0	4679	1614.212858727239	0
0	4686	1616.002851588332	1
0	4688	1617.110008376363	0
0	4709	1621.525283530077	1
0	4710	1622.460292936276	0
0	4716	1622.620255483247	1
0	4719	1623.424710681458	2
0	4720	1623.516573563564	1
0	4726	1625.269912509716	2
0	4729	1626.279274311366	3
0	4730	1626.321425396863	2
0	4737	1627.881761521319	3
0	4739	1629.19745713997	2
0	4745	1629.689029607607	1
0	4750	1629.913254905077	0
0	4766	1634.739414560377	1
0	4767	1635.147574294427	0
0	4788	1640.89301863059	1
0	4789	1640.938415517886	0
0	4795	1640.965048593496	1
0	4798	1645.084845446698	2
0	4800	1645.086975944978	3
0	4801	1645.757663484271	2
0	4808	1650.160039357653	3
0	4811	1650.797676389679	2
0	4816	1650.925173872584	1
0	4822	1652.653591652155	2
0	4825	1656.784639574303	1
0	4830	1656.796417395497	0
0	4859	1664.862435607177	1
0	4860	1665.355097061826	0
0	4886	1669.135273064049	1
0	4888	1670.368372003416	2
0	4895	1675.607452527461	1
0	4904	1677.4638702263	2
0	4905	1677.875915226731	1
0	4910	1678.405023506554	0
0	4924	1687.201597267952	1
0	4928	1689.11734959776	2
0	4932	1691.621456594193	3
0	4933	1692.78016541334	2
0	4939	1692.792916398711	1
0	4944	1694.080431853656	0
0	4958	1698.145737559464	1
0	4959	1699.681348764167	0
0	4981	1706.543816513323	1
0	4983	1706.611430082764	2
0	4984	1706.894582604268	1
0	4990	1708.204000391237	0
0	4996	1708.339384887728	1
0	4999	1709.031207097066	2
0	5001	1713.003612942919	3
0	5004	1714.467692972953	2
0	5009	1715.656414481858	1
0	5015	1716.792368794091	2
0	5017	1716.985061110825	3
0	5018	1717.588576313294	2
0	5024	1720.552934320438	3
0	5029	1721.637221459672	4
0	5030	1721.863000822596	3
0	5036	1724.559780215348	4
0	5037	1726.243095114091	3
0	5042	1727.427410990489	2
0	5050	1731.718423901152	3
0	5055	1733.068804547756	4
0	5056	1733.074934901857	3
0	5062	1734.834349821642	4
0	5064	1736.129699747591	5
0	5073	1747.79063827008	4
0	5078	1748.128124994744	3
0	5084	1748.521679072603	4
0	5085	1748.742219493543	3
0	5091	1751.622619980775	2
0	5101	1753.878904541733	3
0	5104	1755.72807368769	2
0	5110	1756.45048983176	1
0	5116	1756.55429721339	2
0	5117	1756.781908761962	1
0	5126	1758.954104967084	0
0	5177	1782.520525391712	1
0	5181	1784.026779552198	2
0	5184	1784.633792360433	3
0	5186	1786.55798629532	4
0	5187	1792.219636301645	3
0	5192	1792.371155021741	2
0	5199	1794.235015151876	1
0	5204	1794.991684147557	0
0	5215	1798.915129835008	1
0	5216	1800.173971214218	0
0	5228	1804.978679248931	1
0	5230	1807.357336925015	0
0	5245	1813.173378627573	1
0	5246	1814.34467210435	0
0	5261	1818.625133018328	1
0	5262	1819.838382974529	0
0	5268	1820.261071882123	1
0	5269	1820.742431640027	0
0	5275	1821.368797931182	1
0	5277	1821.49087751255	2
0	5278	1821.562856691105	1
0	5286	1822.207061642905	0
0	5298	1826.154600960373	1
0	5303	1826.835404139512	0
0	5337	1839.013040272503	1
0	5339	1840.2958283977	2
0	5341	1841.148173097134	3
0	5344	1842.102504232757	2
0	5351	1843.40438368995	1
0	5356	1844.325632198668	0
0	5381	1847.314316670932	1
0	5385	1848.727896730581	0
0	5391	1849.163070743295	1
0	5394	1849.887560793496	0
0	5402	1850.415187903413	1
0	5404	1852.648888955977	2
0	5408	1852.859341384868	3
0	5410	1853.749664653237	4
0	5411	1854.7534365696	3
0	5416	1855.572682412439	2
0	5422	1856.433975854154	3
0	5424	1857.526065763688	2
0	5429	1859.852456722731	1
0	5437	1860.681282736251	2
0	5438	1861.802176071747	1
0	5444	1862.585175801611	2
0	5445	1862.703720288559	1
0	5450	1862.940889252356	0
0	5467	1865.932706395705	1
0	5469	1866.889062328955	0
0	5475	1867.776911314028	1
0	5476	1868.562537949428	0
0	5482	1871.183265868981	1
0	5483	1871.335949896334	0
0	5493	1878.888789869004	1
0	5496	1881.389077351468	0
0	5503	1883.557715166202	1
0	5505	1884.430472628847	2
0	5507	1884.943244993433	3
0	5509	1884.963032178404	4
0	5510	1886.006274081892	3
0	5516	1886.444898294742	2
0	5521	1886.614680935265	1
0	5526	1886.707657451354	0
0	5539	1887.920250974413	1
0	5541	1889.089855690302	0
0	5547	1890.451057144521	1
0	5548	1895.588826824885	0
0	5566	1905.191562806458	1
0	5567	1905.474882930245	0
0	5578	1909.581353287325	1
0	5582	1912.208580513596	2
0	5583	1913.977816420192	1
0	5589	1914.080464474424	2
0	5590	1914.148748797906	1
0	5596	1915.826959493607	2
0	5597	1916.044104165498	1
0	5603	1916.775027195663	2
0	5610	1919.560929518681	3
0	5611	1923.639590820051	2
0	5617	1923.695090078194	3
0	5620	1924.75008121486	4
0	5622	1927.394933679098	5
0	5627	1930.752457695345	4
0	5633	1931.722374236206	3
0	5638	1932.741151107641	2
0	5643	1933.035687150159	1
0	5648	1934.325141787074	0
0	5654	1935.19000092242	1
0	5656	1935.312634860631	2
0	5658	1936.043531176301	1
0	5663	1936.161461955929	0
0	5671	1938.066782672504	1
0	5672	1939.47837198951	0
0	5676	1939.671467659523	1
0	5678	1940.06096413572	2
0	5682	1940.981389758091	3
0	5684	1941.777175565333	2
0	5689	1942.556906345419	1
0	5694	1942.755349940982	0
0	5702	1948.03844794081	1
0	5703	1948.119093987487	0
0	5709	1949.651879192893	1
0	5710	1949.855002553465	0
0	5741	1956.425049284766	1
0	5743	1957.573089903172	0
0	5749	1958.084581508483	1
0	5753	1959.4595064968	0
0	5773	1964.218241041993	1
0	5778	1965.824055947642	2
0	5779	1966.528224780761	1
0	5784	1967.433581893044	0
0	5797	1971.984725187948	1
0	5802	1974.886067354328	0
0	5816	1978.727536229913	1
0	5817	1979.021447924532	0
0	5824	1982.245140663494	1
0	5825	1982.876938667073	0
0	5831	1983.542525588968	1
0	5838	1987.446134337011	2
0	5840	1987.915624150896	3
0	5841	1993.309480677382	2
0	5847	1993.342656046544	3
0	5848	1993.582760408533	2
0	5853	1993.985259865405	1
0	5861	1996.235144102944	0
0	5876	1999.891035645701	1
0	5880	2003.400898348752	2
0	5883	2005.272292826303	1
0	5889	2007.583792582514	0
0	5903	2011.614720580135	1
0	5907	2012.736852180652	2
0	5912	2014.914030295371	3
0	5913	2016.788659617899	2
0	5918	2018.016272609622	1
0	5923	2019.71743673365	0
0	5940	2024.213796577714	1
0	5942	2024.377943875783	2
0	5943	2024.512968182222	1
0	5948	2024.822885722693	0
0	5958	2030.35504357069	1
0	5961	2030.503618294139	2
0	5962	2030.524847187478	1
0	5970	2031.545849899544	0
0	5993	2038.870008281471	1
0	5994	2039.241710093742	0
0	6005	2039.580105481147	1
0	6007	2040.13669592449	0
0	6013	2040.798780060684	1
0	6014	2042.554617660302	0
0	6049	2048.585936470006	1
0	6053	2052.912014555696	2
0	6054	2055.735707024921	1
0	6064	2059.76660581796	2
0	6066	2059.992465914508	3
0	6067	2060.059491974336	2
0	6074	2060.567959460743	3
0	6075	2061.959318060835	2
0	6082	2068.151897401489	3
0	6088	2071.795540904973	4
0	6092	2073.284870818434	5
0	6095	2076.825791852275	4
0	6102	2079.200013311257	5
0	6103	2079.511298027374	4
0	6109	2079.851431226252	5
0	6113	2080.73706205861	4
0	6121	2082.959796857158	3
0	6126	2084.166652834893	2
0	6139	2089.359268542114	3
0	6140	2089.42317157016	2
0	6146	2089.748886385532	3
0	6147	2090.538755441468	2
0	6152	2091.674499413463	1
0	6159	2094.367704435062	2
0	6161	2095.21078150138	1
0	6167	2095.226427390091	2
0	6171	2097.039618191108	3
0	6172	2097.751643624618	2
0	6178	2098.547445188837	1
0	6185	2100.198207707253	0
0	6198	2105.821779333889	1
0	6200	2107.583989535517	2
0	6201	2109.689081090232	1
0	6206	2109.999792738717	0
0	6232	2116.320959878962	1
0	6233	2116.465669767551	0
0	6239	2116.62445224331	1
0	6241	2117.031951657938	2
0	6245	2118.627829075086	1
0	6252	2122.546149771285	2
0	6254	2123.589313324016	3
0	6255	2124.585437102362	2
0	6260	2125.255433420061	1
0	6267	2128.302935653279	0
0	6283	2131.335884912616	1
0	6288	2134.164370893447	0
0	6294	2134.272895800748	1
0	6296	2136.242181111066	0
0	6302	2136.999883239173	1
0	6306	2138.394643356763	0
0	6312	2138.561310514318	1
0	6313	2138.591382298479	0
0	6324	2139.875837988237	1
0	6325	2139.894377695906	0
0	6337	2143.422083887455	1
0	6339	2145.431473047813	0
0	6354	2149.788854872671	1
0	6355	2151.335300997744	0
0	6372	2154.200278467865	1
0	6373	2155.491879739065	0
0	6395	2161.123942934229	1
0	6396	2161.678427334816	0
0	6402	2162.868793110248	1
0	6404	2164.832949993981	0
0	6427	2174.799147184709	1
0	6428	2176.281406767593	0
0	6439	2179.79953230815	1
0	6440	2180.446012881682	0
0	6469	2188.663190491451	1
0	6470	2190.308039250398	0
0	6491	2195.731232851743	1
0	6493	2196.607648089145	2
0	6494	2201.027566896938	1
0	6500	2201.227377804982	2
0	6501	2201.50008841279	1
0	6506	2202.408262766781	0
0	6512	2202.421909029528	1
0	6513	2202.941587596633	0
0	6525	2204.506716900516	1
0	6528	2205.420109815059	0
0	6551	2216.49287553784	1
0	6552	2217.375408656607	0
0	6568	2224.747609636882	1
0	6569	2225.751774437539	0
0	6575	2226.107775465997	1
0	6576	2227.003947199646	0
0	6599	2232.899998706312	1
0	6600	2232.99969273417	0
0	6624	2239.005301292292	1
0	6627	2240.152386924228	0
0	6649	2244.80531137289	1
0	6650	2245.20040300871	0
0	6666	2249.918965897132	1
0	6667	2249.959072402281	0
0	6682	2258.66476633912	1
0	6683	2258.900279348277	0
0	6689	2259.046531415486	1
0	6692	2263.418486673473	2
0	6693	2263.543214792776	1
0	6698	2264.204251869469	0
0	6718	2269.41193853427	1
0	6719	2269.655532485686	0
0	6741	2273.043033528799	1
0	6742	2273.358787680595	0
0	6749	2273.916857473286	1
0	6750	2275.282407553817	0
0	6759	2276.265735118496	1
0	6765	2282.684148559788	0
0	6780	2285.45035590116	1
0	6781	2288.587254642946	0
0	6787	2288.636862961963	1
0	6789	2289.789850611037	0
0	6813	2296.763657370062	1
0	6815	2296.827936037013	2
0	6817	2297.302364105549	3
0	6821	2297.765012324476	4
0	6822	2299.506607410147	3
0	6827	2301.216921994766	2
0	6832	2302.084106114671	1
0	6844	2311.048233550612	0
0	6856	2311.409160119473	1
0	6857	2312.22524504851	0
0	6871	2313.378160783337	1
0	6873	2314.484819842377	2
0	6878	2315.921021144965	1
0	6885	2316.380279229343	2
0	6887	2316.61308649765	3
0	6890	2317.768537738485	4
0	6891	2319.982990492606	3
0	6905	2325.210305150924	2
0	6911	2325.992698141384	3
0	6913	2326.240633026267	4
0	6915	2328.108029619521	5
0	6916	2328.612024634379	4
0	6922	2328.766773170712	5
0	6924	2329.021998516037	6
0	6925	2329.471251760611	5
0	6932	2331.76000334243	4
0	6942	2333.821376807725	5
0	6946	2335.306887530191	6
0	6948	2335.596760151353	7
0	6949	2337.717443904295	6
0	6955	2339.04879672533	5
0	6962	2344.534454027332	6
0	6963	2344.624061001978	5
0	6969	2345.162185641254	6
0	6971	2348.402003923386	5
0	6977	2349.406704917946	4
0	6983	2353.071798563205	3
0	6988	2354.305537956294	2
0	6994	2354.347565841066	3
0	6997	2358.342643638906	2
0	7003	2360.088818086156	1
0	7008	2360.386158476581	0
0	7014	2360.721965085458	1
0	7017	2361.079670858481	0
0	7025	2364.02962974878	1
0	7026	2364.762547947088	0
0	7049	2372.509213213854	1
0	7052	2373.4436954135	2
0	7055	2375.401202373443	1
0	7060	2375.755195047339	0
0	7068	2377.144778419855	1
0	7069	2377.417277852034	0
0	7093	2392.74305994655	1
0	7096	2394.366150288556	0
0	7104	2395.229982001654	1
0	7106	2395.501207196055	2
0	7111	2399.470515357993	3
0	7113	2401.653414498978	4
0	7115	2402.828500516676	5
0	7118	2405.65671798744	4
0	7123	2406.565432163867	3
0	7131	2408.571942494251	4
0	7133	2408.602898425077	5
0	7135	2408.968065278032	6
0	7136	2409.287212495814	5
0	7141	2409.689101605461	4
0	7147	2409.788252560166	5
0	7149	2410.465784650983	6
0	7153	2411.238449531138	5
0	7160	2412.851300626997	4
0	7167	2414.07556679804	5
0	7170	2416.456184307705	6
0	7171	2417.761505830358	5
0	7176	2419.791432458402	4
0	7182	2420.704478112421	5
0	7184	2421.706632852773	6
0	7187	2421.885338121648	7
0	7189	2424.432720453556	6
0	7194	2424.684000101315	5
0	7199	2425.853904594573	4
0	7204	2426.030928465604	3
0	7210	2426.666415608009	2
0	7215	2428.037014090777	1
0	7227	2431.184453234524	0
0	7234	2431.807131424862	1
0	7236	2431.866870449241	2
0	7241	2433.90306993655	1
0	7247	2434.351722723448	2
0	7250	2434.834949624662	3
0	7251	2435.266176075637	2
0	7257	2437.037065625161	1
0	7263	2438.562666234985	2
0	7267	2444.439561990409	1
0	7272	2448.156257719122	0
0	7290	2450.746929919182	1
0	7294	2452.118508128089	2
0	7295	2452.288667809071	1
0	7303	2453.660026101656	2
0	7311	2458.377450031597	1
0	7316	2459.079474199411	0
0	7328	2461.570636944672	1
0	7330	2461.586434125829	2
0	7337	2464.525580134271	1
0	7342	2464.532669560541	0
0	7383	2473.270162350723	1
0	7384	2473.684980435182	0
0	7398	2478.655101609241	1
0	7404	2482.059868881181	2
0	7405	2482.6793966994	1
0	7411	2484.613624039516	0
0	7443	2498.058918840785	1
0	7444	2498.197530522891	0
0	7485	2514.128519376995	1
0	7486	2515.019119998311	0
0	7506	2523.159353811592	1
0	7508	2523.59526768704	2
0	7509	2525.605205564329	1
0	7515	2529.063427318922	0
0	7524	2530.87961249432	1
0	7525	2533.578630525319	0
0	7535	2535.276594073938	1
0	7540	2538.667231758044	0
0	7547	2539.556749714108	1
0	7549	2541.013659150039	2
0	7550	2541.635721956145	1
0	7556	2541.802715541651	2
0	7558	2543.048374419901	1
0	7563	2543.132398573503	0
0	7588	2551.459020839315	1
0	7590	2551.686350616968	2
0	7593	2552.882166777351	1
0	7604	2554.491571521685	2
0	7605	2556.047338427929	1
0	7613	2560.196358895262	0
0	7628	2567.042020698913	1
0	7630	2567.146454603168	2
0	7635	2569.748591122694	1
0	7640	2570.194422822765	0
0	7648	2574.530810552258	1
0	7650	2575.453882590558	2
0	7652	2578.985054263426	3
0	7654	2579.770736794005	4
0	7655	2580.21880017633	3
0	7660	2580.332533787618	2
0	7666	2581.591392789132	1
0	7673	2582.887226897855	0
0	7679	2582.978975928691	1
0	7680	2583.273889631723	0
0	7706	2593.949163115463	1
0	7711	2595.965932336783	0
0	7736	2606.484866908289	1
0	7738	2608.322314730592	2
0	7739	2610.533726413086	1
0	7744	2611.347673349167	0
0	7750	2611.663758676142	1
0	7751	2611.764184370958	0
0	7766	2613.160974036153	1
0	7768	2613.800698205502	2
0	7774	2617.974919860229	3
0	7776	2621.285204863854	4
0	7781	2622.653663231481	3
0	7788	2624.788896402239	2
0	7793	2624.886543424034	1
0	7801	2628.893923281733	0
0	7819	2635.905331156672	1
0	7820	2637.903203156921	0
0	7840	2649.270147479379	1
0	7844	2650.336911793697	2
0	7847	2652.099557500538	1
0	7857	2656.632791245205	2
0	7861	2659.881733865161	3
0	7862	2661.597939977632	2
0	7874	2665.433148420171	1
0	7883	2667.655464311923	0
0	7891	2669.440230920818	1
0	7895	2670.926935186102	0
0	7903	2671.809208962472	1
0	7905	2672.2028242177	2
0	7907	2673.547937283072	1
0	7912	2673.730812144837	0
0	7924	2676.221846975624	1
0	7926	2676.231658813663	2
0	7933	2678.493839454788	3
0	7934	2680.081635898165	2
0	7942	2681.765395723275	1
0	7947	2682.276280695828	0
0	7953	2682.877059535499	1
0	7959	2685.868871367338	2
0	7960	2687.646884416428	1
0	7968	2689.091202655206	0
0	8005	2702.344378829287	1
0	8012	2707.597204156526	0
0	8023	2708.818906810489	1
0	8024	2709.228955770884	0
0	8031	2710.300680079176	1
0	8034	2710.961888655483	2
0	8037	2712.188573118427	1
0	8043	2713.835300809885	0
0	8074	2720.043190678808	1
0	8075	2720.600984149044	0
0	8098	2726.722939947896	1
0	8100	2727.979316664075	2
0	8105	2730.197195316599	1
0	8110	2732.400130438022	0
0	8121	2734.203644561449	1
0	8124	2737.128352958903	0
0	8132	2741.234399965914	1
0	8136	2742.72214834873	2
0	8144	2745.541707794764	1
0	8152	2747.167322633039	2
0	8154	2747.705810028393	3
0	8156	2748.795859259135	4
0	8157	2751.432563968287	3
0	8163	2752.324820766178	2
0	8169	2755.713846513103	3
0	8170	2755.853622425453	2
0	8177	2758.063376301919	1
0	8184	2760.247365374836	0
0	8214	2772.333317761251	1
0	8216	2772.49174186025	2
0	8217	2774.134570008349	1
0	8223	2774.608781663104	2
0	8227	2777.080332186823	1
0	8233	2778.487370236364	0
0	8250	2781.522939017872	1
0	8251	2783.102176392983	0
0	8257	2783.136970312506	1
0	8258	2783.594240824802	0
0	8294	2799.205728438684	1
0	8297	2801.403595257103	0
0	8309	2804.003635822899	1
0	8313	2805.346390252097	0
0	8327	2808.766577678767	1
0	8328	2808.992284173702	0
0	8334	2809.466410614292	1
0	8337	2812.204486086989	0
0	8344	2812.302854715832	1
0	8346	2812.813487058367	2
0	8348	2812.892965207323	1
0	8353	2813.171078088754	0
0	8361	2815.258318523829	1
0	8362	2816.947309376252	0
0	8369	2817.273426159452	1
0	8371	2817.956046232694	2
0	8372	2818.912417727652	1
0	8377	2819.059224240548	0
0	8386	2821.223664086772	1
0	8388	2822.026857748321	0
0	8404	2822.965319940241	1
0	8407	2824.064910037007	2
0	8408	2825.534398613565	1
0	8414	2826.212783783746	2
0	8415	2826.531912283697	1
0	8421	2826.85202890507	2
0	8425	2827.944618472467	3
0	8427	2829.291800811342	4
0	8429	2829.346320949364	5
0	8432	2835.001996781833	4
0	8437	2835.033771386757	3
0	8443	2836.083162278933	2
0	8453	2842.15347032519	3
0	8454	2843.145228397837	2
0	8462	2847.21681336854	1
0	8467	2849.044119052292	0
0	8476	2850.477171808705	1
0	8482	2851.710099066879	0
0	8503	2858.604400126681	1
0	8505	2859.865957571804	2
0	8506	2861.432840627672	1
0	8511	2861.787762136292	0
0	8522	2866.519026768098	1
0	8526	2867.492213880168	2
0	8530	2869.587144698759	3
0	8533	2873.534218023809	2
0	8538	2874.56610619263	1
0	8543	2875.406186023412	0
0	8549	2875.477311911846	1
0	8553	2878.036216081959	0
0	8561	2879.116150801604	1
0	8563	2879.578975246475	2
0	8565	2880.186205864806	1
0	8571	2880.867208077693	0
0	8593	2892.295570680455	1
0	8597	2893.056297359713	2
0	8598	2893.240415491814	1
0	8606	2894.426267595347	0
0	8612	2894.532032629499	1
0	8614	2894.831123118101	2
0	8618	2897.038648157303	3
0	8621	2897.357361865953	2
0	8627	2897.443736077883	3
0	8628	2897.522439230612	2
0	8637	2901.838015964534	3
0	8643	2903.223816647905	4
0	8644	2903.636224373208	3
0	8650	2903.666498182017	4
0	8651	2903.668637812496	3
0	8656	2906.16531344471	2
0	8666	2907.181536381712	1
0	8671	2907.445037926509	0
0	8703	2913.257459314673	1
0	8706	2913.550018459121	0
0	8716	2919.319549141399	1
0	8719	2919.696559425888	0
0	8732	2921.844771793031	1
0	8734	2922.16530284944	2
0	8735	2923.862978988551	1
0	8740	2924.247059054489	0
0	8752	2927.601867967336	1
0	8754	2927.674426674508	2
0	8755	2927.697688987867	1
0	8761	2928.787150207285	0
0	8767	2928.911944438455	1
0	8773	2931.752324929685	2
0	8774	2931.790687573671	1
0	8780	2932.300777488118	2
0	8782	2933.575062485203	1
0	8787	2934.382255373792	0
0	8793	2934.471150788787	1
0	8794	2935.232636269162	0
0	8803	2938.644054039028	1
0	8805	2939.857019915081	2
0	8809	2941.709019752262	3
0	8811	2942.80984225721	4
0	8817	2945.770342780517	5
0	8822	2951.053579101923	4
0	8829	2953.586168047286	3
0	8835	2954.348755520758	4
0	8842	2957.104798189365	3
0	8849	2958.702236761193	4
0	8851	2958.873820435191	5
0	8853	2958.922190635456	6
0	8856	2960.518226729365	5
0	8862	2963.309447937152	4
0	8868	2966.79091208133	5
0	8871	2967.827570922105	4
0	8877	2971.084431441997	3
0	8882	2971.122264350465	2
0	8887	2971.915386622669	1
0	8896	2977.07800899184	0
0	8904	2980.434889624917	1
0	8905	2981.147911058373	0
0	8943	2989.269420326288	1
0	8944	2989.955279385827	0
0	8974	3000.269559080239	1
0	8979	3001.493490731925	0
0	8991	3002.354194743666	1
0	8993	3004.650406969624	0
0	9020	3014.961187760949	1
0	9021	3015.787116066253	0
0	9042	3022.052124370149	1
0	9043	3022.100097141639	0
0	9065	3035.019544457594	1
0	9066	3035.678348125439	0
0	9080	3037.91686522489	1
0	9082	3040.440088509062	2
0	9085	3043.582906691795	1
0	9094	3046.241929055476	2
0	9100	3050.192368419858	3
0	9104	3050.62845813355	4
0	9105	3051.068262343778	3
0	9111	3051.901078491463	4
0	9115	3055.064924663342	3
0	9122	3056.611824210707	2
0	9130	3057.05973987386	3
0	9132	3058.391277972422	2
0	9138	3062.199781579785	1
0	9145	3065.349883485611	0
0	9152	3070.77775336104	1
0	9153	3072.966771138366	0
0	9175	3077.31287474732	1
0	9177	3077.480575749442	2
0	9178	3078.977956653758	1
0	9186	3079.777296584181	2
0	9188	3080.478225987319	3
0	9189	3080.553794576475	2
0	9195	3083.534581613393	1
0	9201	3084.08306523066	0
0	9214	3087.882580591564	1
0	9215	3088.259719588964	0
0	9221	3088.260616024724	1
0	9224	3090.250086289161	2
0	9225	3091.678732209683	1
0	9231	3091.928053007732	2
0	9234	3092.734132547759	1
0	9240	3093.552947837521	0
0	9248	3096.864008232551	1
0	9249	3099.153303432527	0
0	9255	3099.962582908658	1
0	9256	3100.221458516622	0
0	9275	3104.661037973508	1
0	9277	3105.327274163049	2
0	9278	3105.987109897744	1
0	9284	3108.127909071034	0
0	9293	3110.602360785191	1
0	9294	3111.043783324874	0
0	9312	3115.170556552861	1
0	9313	3117.179304593431	0
0	9320	3121.665033800129	1
0	9321	3121.920926657045	0
0	9332	3122.033488614145	1
0	9335	3122.205046874121	0
0	9361	3129.018283063954	1
0	9364	3131.059282816651	0
0	9370	3133.189675812096	1
0	9371	3133.491128810976	0
0	9377	3133.824688765282	1
0	9380	3136.921309459329	0
0	9386	3136.977904422663	1
0	9388	3137.929944308035	2
0	9390	3138.634374356654	1
0	9397	3139.090353671018	2
0	9399	3140.315775583329	3
0	9400	3141.145540815237	2
0	9406	3141.877751023646	3
0	9408	3142.267315697617	4
0	9409	3143.20770061483	3
0	9417	3143.841342769339	4
0	9420	3147.584960369286	3
0	9426	3150.899258049576	2
0	9431	3152.819443896268	1
0	9436	3152.924551460516	0
0	9450	3155.142392831114	1
0	9451	3155.237714576603	0
0	9473	3161.99885464648	1
0	9477	3166.485969697647	2
0	9479	3169.054054892962	3
0	9481	3169.601026519768	4
0	9482	3169.812139095553	3
0	9489	3172.892062619296	2
0	9497	3174.28106366528	1
0	9503	3174.748987932766	2
0	9504	3175.298873971261	1
0	9509	3176.166428539221	0
0	9536	3190.360467255376	1
0	9537	3192.963355702194	0
0	9549	3195.746973802982	1
0	9550	3195.763874592907	0
0	9560	3203.799866334235	1
0	9563	3205.805921293031	0
0	9572	3207.084167408171	1
0	9578	3210.468511678762	0
0	9591	3212.775301340458	1
0	9592	3213.410921339575	0
0	9647	3228.966770401564	1
0	9649	3229.574632709895	2
0	9654	3230.263552665757	1
0	9660	3230.279389004733	2
0	9663	3233.041989400029	3
0	9667	3235.974772220346	2
0	9672	3237.124902402111	1
0	9680	3240.352182519151	2
0	9681	3240.814570475059	1
0	9688	3243.293012968135	0
0	9726	3255.872264454651	1
0	9728	3257.689214502059	2
0	9730	3257.860946023077	3
0	9731	3258.536456178985	2
0	9743	3260.565758241316	3
0	9745	3261.12867304034	4
0	9747	3261.252148612709	5
0	9749	3261.563210062552	6
0	9751	3261.857751591152	7
0	9752	3262.992396954165	6
0	9757	3263.636182966043	5
0	9763	3264.623117540022	6
0	9765	3265.929867476881	5
0	9770	3266.006727550536	4
0	9775	3266.551143807153	3
0	9782	3270.995146005179	2
0	9787	3271.201928310292	1
0	9794	3271.511204643556	0
0	9817	3277.86005033588	1
0	9818	3277.993191001915	0
0	9838	3282.438876605156	1
0	9843	3284.249186987812	2
0	9846	3288.287012439418	1
0	9854	3289.61620937521	0
0	9862	3292.701754748116	1
0	9863	3293.275688631959	0
0	9892	3302.479765971255	1
0	9895	3304.546962245895	0
0	9907	3309.949886420315	1
0	9910	3311.105334187299	0
0	9920	3313.347658624434	1
0	9923	3314.601229365051	0
0	9940	3319.462018025906	1
0	9943	3322.950219652796	0
0	9957	3328.14868106547	1
0	9961	3329.642749390673	2
0	9965	3342.873038537788	1
0	9973	3347.094715727876	2
0	9974	3353.217891503088	1
0	9980	3353.263962616661	2
0	9981	3355.187412247734	1
0	9988	3356.011447967724	2
0	9989	3356.644143787838	1
0	9994	3356.766541453307	0
0	10000	3357.177060321935	1
0	10001	3357.650654038098	0
0	10029	3365.097235716732	1
0	10031	3367.878384762726	0
0	10037	3369.505364043487	1
0	10042	3373.036870627362	2
0	10043	3373.281844490519	1
0	10051	3377.245488641738	0
0	10069	3381.416827929289	1
0	10072	3384.533116073378	0
0	10084	3386.713068122189	1
0	10086	3386.891438962077	2
0	10088	3388.159556118964	3
0	10091	3389.865428996343	4
0	10092	3390.876947674655	3
0	10098	3391.827944136482	2
0	10103	3392.131067603825	1
0	10109	3392.16779492499	2
0	10111	3392.947228193407	1
0	10121	3398.097185488867	0
0	10127	3398.339509603791	1
0	10129	3401.223862093237	0
0	10137	3405.780232545051	1
0	10138	3406.083610420283	0
0	10144	3407.366950755648	1
0	10145	3407.47413903841	0
0	10203	3432.241448828898	1
0	10204	3432.756579440365	0
0	10211	3435.246601304429	1
0	10213	3440.38345420822	2
0	10215	3441.244851698607	3
0	10220	3445.079658732548	2
0	10229	3446.051751243869	3
0	10230	3446.23171209496	2
0	10237	3447.63169621932	1
0	10244	3450.233363370191	2
0	10250	3455.402495518714	1
0	10259	3457.678404727987	2
0	10261	3458.117630732703	1
0	10266	3458.132587151422	0
0	10286	3461.145559115545	1
0	10288	3461.393616467642	2
0	10291	3462.398294977531	1
0	10298	3463.317507066527	2
0	10301	3463.675131962811	3
0	10302	3466.368822632637	2
0	10311	3468.012578885572	1
0	10317	3468.821585803856	2
0	10321	3472.425046542352	1
0	10327	3472.426778672001	2
0	10329	3472.553879701374	3
0	10333	3474.516610448405	2
0	10342	3477.552892415592	1
0	10348	3479.060106552304	2
0	10353	3480.843940009729	1
0	10360	3483.312733491587	2
0	10361	3483.773932451306	1
0	10367	3485.082706309238	0
0	10382	3491.228158989323	1
0	10383	3491.283577328613	0
0	10389	3492.517807210967	1
0	10393	3494.214044609026	0
0	10400	3495.971557368375	1
0	10402	3496.815372050336	2
0	10409	3498.555186197068	1
0	10415	3498.612632885871	2
0	10417	3501.328154557109	1
0	10424	3502.07711042859	2
0	10426	3502.14240522644	3
0	10427	3503.406354066772	2
0	10436	3504.061336095801	3
0	10437	3504.409904506841	2
0	10443	3504.974964525714	3
0	10444	3506.097292048274	2
0	10449	3507.847354584743	1
0	10457	3510.219643969084	2
0	10458	3511.342722518835	1
0	10463	3511.514172136555	0
0	10469	3512.120726433602	1
0	10473	3513.395308910899	2
0	10476	3515.66289409703	1
0	10480	3517.022699864232	2
0	10486	3519.797588199139	1
0	10491	3520.069353527862	0
0	10539	3530.955029992581	1
0	10541	3531.47629635664	2
0	10544	3535.370625050307	1
0	10550	3535.537583103907	2
0	10553	3537.2180501971	1
0	10559	3538.249239985822	0
0	10574	3543.137728625534	1
0	10577	3545.969517799097	0
0	10586	3546.826005315404	1
0	10589	3547.923192453645	0
0	10597	3549.574393958188	1
0	10598	3550.562236200745	0
0	10607	3551.989570348746	1
0	10611	3553.172606244952	2
0	10613	3555.730027742673	1
0	10621	3560.793433433872	0
0	10646	3568.745123660157	1
0	10649	3570.068187357532	0
0	10675	3577.627770105349	1
0	10678	3579.792827446004	0
0	10684	3579.938669825712	1
0	10687	3582.438674217843	2
0	10688	3584.675209230156	1
0	10693	3584.854289483575	0
0	10707	3587.364385218005	1
0	10710	3589.593805187721	2
0	10711	3589.796083489625	1
0	10718	3595.707994003708	0
0	10727	3599.146884723994	1
0	10728	3600.002662318304	0
0	10740	3603.398085984524	1
0	10741	3604.710891342549	0
0	10753	3607.334009506881	1
0	10759	3611.219193593753	0
0	10790	3624.584171774824	1
0	10792	3626.264839846129	2
0	10793	3626.467209298521	1
0	10800	3627.756806680958	2
0	10801	3630.14261337316	1
0	10809	3633.717957591777	0
0	10835	3639.148552513076	1
0	10837	3639.60805817356	2
0	10840	3641.169131173176	1
0	10845	3641.553964892162	0
0	10878	3652.447275033154	1
0	10881	3657.452280369347	0
0	10910	3668.950858668531	1
0	10914	3672.718915538761	2
0	10916	3673.05100268244	3
0	10917	3673.591074598983	2
0	10925	3674.459098311801	3
0	10926	3676.110116360846	2
0	10933	3676.765186232249	1
0	10939	3678.434777435417	0
0	10951	3685.233936774734	1
0	10955	3685.471927936214	2
0	10957	3686.394028216271	1
0	10963	3686.971914371072	2
0	10966	3688.095627763624	3
0	10968	3689.168338391358	4
0	10970	3689.354305021836	5
0	10978	3695.779917658313	6
0	10979	3698.020654652303	5
0	10985	3699.996863195206	4
0	10990	3701.659658682705	3
0	10996	3704.064653136266	2
0	11005	3705.049092679248	3
0	11010	3708.700503360065	2
0	11018	3711.875832293006	1
0	11031	3713.388896276707	2
0	11036	3715.246880656241	3
0	11038	3716.426246311499	2
0	11044	3717.153762935503	3
0	11045	3718.890431354258	2
0	11053	3720.562877274218	3
0	11058	3724.251342924456	2
0	11063	3726.87283452266	1
0	11068	3727.813508978855	0
0	11102	3738.790744859623	1
0	11103	3739.59058880794	0
0	11129	3747.76347334865	1
0	11132	3748.996315408668	0
0	11138	3749.247065828086	1
0	11140	3752.583966550475	0
0	11162	3755.419408876285	1
0	11164	3755.907759881287	2
0	11165	3756.682831333164	1
0	11171	3758.376874321485	0
0	11177	3760.717753110859	1
0	11179	3761.544087629783	0
0	11185	3762.576099845061	1
0	11187	3765.070214011476	0
0	11204	3768.152336110175	1
0	11205	3768.651746463108	0
0	11217	3773.439740031035	1
0	11218	3773.521971279662	0
0	11227	3775.804458569929	1
0	11228	3776.945513262216	0
0	11240	3777.439286039441	1
0	11241	3777.638659279772	0
0	11258	3779.819268989005	1
0	11259	3780.649531764147	0
0	11268	3782.353491107189	1
0	11273	3785.151072150325	2
0	11275	3786.534684576777	3
0	11276	3787.81966126381	2
0	11282	3788.720861946285	3
0	11285	3789.18275036101	2
0	11290	3789.400106313498	1
0	11295	3790.385490277359	0
0	11313	3797.514977430324	1
0	11314	3797.548781528001	0
0	11320	3797.825814139512	1
0	11323	3798.236428029596	2
0	11324	3799.220001691782	1
0	11330	3799.268925242208	2
0	11331	3799.659072220189	1
0	11345	3807.329059412248	2
0	11347	3809.215957517663	1
0	11353	3809.356025206331	2
0	11354	3809.654771766657	1
0	11361	3810.560306633526	0
0	11385	3817.035272559769	1
0	11386	3818.790072206846	0
0	11421	3831.210530289677	1
0	11425	3834.082360372232	2
0	11430	3836.257019240067	1
0	11436	3840.364176221932	0
0	11445	3842.854855928258	1
0	11447	3843.06934691656	2
0	11449	3843.782045981115	3
0	11451	3844.536013689493	4
0	11452	3845.709956010055	3
0	11458	3846.383836694882	4
0	11462	3847.618211793572	5
0	11467	3849.540761324204	6
0	11469	3851.172315168483	7
0	11471	3852.537463390271	8
0	11472	3853.160372767188	7
0	11479	3857.930187676839	6
0	11485	3858.749616799105	5
0	11493	3861.520250903629	4
0	11498	3861.538964939937	3
0	11503	3863.258377702874	2
0	11511	3865.69383195503	1
0	11516	3866.244868168383	0
0	11528	3867.723159135415	1
0	11529	3868.211761312168	0
0	11546	3870.313194157953	1
0	11547	3871.366016179889	0
0	11564	3872.350045088648	1
0	11565	3872.423180073094	0
0	11571	3872.456387592339	1
0	11575	3874.183871754828	2
0	11577	3875.288350558836	3
0	11579	3876.491702118046	2
0	11586	3877.239813702009	1
0	11592	3879.734479155136	0
0	11603	3879.972577643014	1
0	11605	3882.087396084138	0
0	11614	3883.154699398437	1
0	11616	3883.703766159662	2
0	11618	3883.97078433342	3
0	11619	3884.669849966267	2
0	11624	3885.002105742483	1
0	11631	3885.434761449875	2
0	11632	3886.636207442705	1
0	11637	3887.168156920508	0
0	11645	3887.949968906517	1
0	11649	3890.009577655569	2
0	11651	3891.409651002894	1
0	11659	3893.290765940733	0
0	11663	3894.081978498528	1
0	11665	3894.290225820805	2
0	11667	3894.413989412523	3
0	11674	3895.832338133695	2
0	11681	3896.553120200022	1
0	11695	3900.314373554532	2
0	11697	3900.338604398765	3
0	11698	3901.185533049749	2
0	11704	3901.506723312149	3
0	11705	3902.719307729602	2
0	11713	3904.113392556274	3
0	11714	3905.561467984265	2
0	11721	3906.108466579987	1
0	11728	3907.467184336733	2
0	11731	3907.675671150065	3
0	11733	3910.731978026556	4
0	11735	3911.488612166536	5
0	11736	3913.536464447879	4
0	11742	3913.632019938028	5
0	11746	3917.966632656851	6
0	11747	3918.941154837751	5
0	11752	3919.011682191058	4
0	11758	3920.235387359102	5
0	11760	3921.415487454059	4
0	11766	3923.462664259625	3
0	11772	3923.720788588412	4
0	11773	3925.627993653671	3
0	11778	3926.551271654058	2
0	11784	3927.577397741588	1
0	11792	3931.295846142904	2
0	11794	3932.886782042699	3
0	11797	3934.098438537729	2
0	11802	3934.467632852913	1
0	11810	3935.162890060815	2
0	11811	3937.719580573	1
0	11821	3938.410694704735	2
0	11823	3941.531325198221	1
0	11829	3943.210373683157	2
0	11830	3944.606636748776	1
0	11835	3945.1518331518	0
0	11842	3946.045654464616	1
0	11843	3946.114743375913	0
0	11871	3951.740755573999	1
0	11876	3958.77250113823	0
0	11883	3960.715441314546	1
0	11884	3961.117460962917	0
0	11901	3963.102094108643	1
0	11906	3965.953691569815	0
0	11928	3973.975327132387	1
0	11929	3974.956602830343	0
0	11935	3975.385306721764	1
0	11937	3976.132662108406	2
0	11938	3976.167153618988	1
0	11945	3977.294429960429	2
0	11946	3977.93302170544	1
0	11952	3979.000675665412	0
0	11965	3980.791213536111	1
0	11967	3980.993470453338	2
0	11968	3986.29177589471	1
0	11977	3989.244803052591	2
0	11978	3989.824774340133	1
0	11985	3994.386868017188	2
0	11986	3994.663529940859	1
0	11993	3997.858438699392	0
0	12000	3999.49183895333	1
0	12001	3999.625014520419	0
0	12008	3999.839131125797	1
0	12010	4000.298485594356	0
0	12017	4001.378155070069	1
0	12018	4001.777854652604	0
0	12043	4008.715515894485	1
0	12045	4009.552715544557	2
0	12048	4009.968824251798	3
0	12050	4013.894553771481	4
0	12051	4013.965284701275	3
0	12056	4014.872292653092	2
0	12062	4017.982513997112	3
0	12065	4018.836777902463	4
0	12066	4019.336101948757	3
0	12075	4020.919042237336	4
0	12080	4024.032983501696	5
0	12081	4024.098698689145	4
0	12086	4024.190629574964	3
0	12092	4024.790176413292	4
0	12097	4029.546488010926	5
0	12098	4030.051139450821	4
0	12106	4030.821948993753	3
0	12117	4035.762265596819	4
0	12118	4039.280338147788	3
0	12125	4039.631149701403	4
0	12127	4039.96642861646	5
0	12129	4041.382058932914	4
0	12134	4041.491216772615	3
0	12140	4041.788402999109	4
0	12141	4041.904840466022	3
0	12151	4043.479801140341	4
0	12154	4045.638698474848	5
0	12158	4049.638117143604	4
0	12163	4050.279668244318	3
0	12169	4051.651181956406	4
0	12176	4055.491009797554	5
0	12178	4055.540559715363	6
0	12179	4061.136607005276	5
0	12184	4061.329078556348	4
0	12190	4062.777112506356	3
0	12198	4063.616210053987	2
0	12204	4064.018543401416	3
0	12207	4065.268593748302	4
0	12209	4065.640706398715	5
0	12211	4068.46400258446	4
0	12217	4068.937381277539	5
0	12218	4069.487321469255	4
0	12223	4069.814671776717	3
0	12230	4071.995214849434	4
0	12233	4072.250731032854	5
0	12238	4074.769445276658	6
0	12239	4075.517361901774	5
0	12245	4077.642011199435	6
0	12248	4078.080735911353	7
0	12249	4080.31627889481	6
0	12254	4080.528044104183	5
0	12259	4080.573437943225	4
0	12264	4081.879730689013	3
0	12276	4085.476312173605	2
0	12282	4087.025190166982	1
0	12289	4088.681580930797	0
0	12311	4094.383050131904	1
0	12314	4098.752096857667	0
0	12325	4099.557505979605	1
0	12326	4101.422264127626	0
0	12367	4108.233317432574	1
0	12368	4109.308134354774	0
0	12374	4109.445034267439	1
0	12375	4110.810417184696	0
0	12406	4127.275981620956	1
0	12421	4134.01293564924	0
0	12429	4134.504652837088	1
0	12430	4135.925097643581	0
0	12448	4140.850885844498	1
0	12450	4141.51584519235	0
0	12464	4142.008489631752	1
0	12468	4143.623287978085	2
0	12474	4145.00422685935	1
0	12480	4145.456024784561	2
0	12481	4148.006773967908	1
0	12487	4149.004668973208	2
0	12488	4149.011803983991	1
0	12495	4150.203244759577	2
0	12498	4151.247863090652	1
0	12505	4152.968487118117	2
0	12507	4154.392732322436	1
0	12515	4157.192309891856	2
0	12516	4158.561160836925	1
0	12521	4158.608527913633	0
0	12531	4161.760043588396	1
0	12533	4162.519377578369	2
0	12536	4163.566808326391	1
0	12543	4164.925010852538	2
0	12545	4167.41350015957	1
0	12550	4168.034172723253	0
0	12565	4171.161279949174	1
0	12566	4171.207811482737	0
0	12573	4172.395858859377	1
0	12578	4173.755209379157	2
0	12580	4173.768092562779	3
0	12585	4175.60441077188	4
0	12587	4176.261144366911	5
0	12589	4177.176190069181	6
0	12590	4178.071335690464	5
0	12595	4178.270115483333	4
0	12601	4179.169309029193	5
0	12603	4180.048600335166	6
0	12605	4180.449916129926	7
0	12607	4182.332777885933	6
0	12613	4182.601708690019	7
0	12614	4183.532450229911	6
0	12619	4184.715738611871	5
0	12625	4185.57911948406	6
0	12626	4185.59512340587	5
0	12633	4185.865117921046	4
0	12639	4187.048779238213	5
0	12640	4188.811774833052	4
0	12645	4193.367337055705	3
0	12650	4198.677604757238	2
0	12657	4199.510506403101	1
0	12666	4202.102776792961	2
0	12670	4203.417394870054	1
0	12676	4204.893902472803	0
0	12682	4205.142562185732	1
0	12683	4206.038703787056	0
0	12696	4208.013866812632	1
0	12698	4208.079836898032	0
0	12705	4209.176763688149	1
0	12706	4209.474996252922	0
0	12723	4213.157767361665	1
0	12724	4213.379729735416	0
0	12751	4226.908229457821	1
0	12752	4227.668488945164	0
0	12795	4248.622977652884	1
0	12799	4250.585125252936	2
0	12801	4251.129024394054	3
0	12807	4251.901151839345	4
0	12808	4252.293617644198	3
0	12816	4254.21734482138	4
0	12817	4255.156889300112	3
0	12823	4255.89208669127	2
0	12830	4258.219939833402	1
0	12835	4259.152028296044	0
0	12841	4260.912363791491	1
0	12842	4262.815975180235	0
0	12854	4264.604502051602	1
0	12857	4265.24452674625	2
0	12862	4271.603281039896	1
0	12868	4272.021812418463	0
0	12880	4278.285079682519	1
0	12881	4281.771208619488	0
0	12887	4282.1800419332	1
0	12890	4283.428603353958	0
0	12905	4285.186648588016	1
0	12912	4291.072985703967	2
0	12917	4292.128993960957	1
0	12924	4293.082478601002	0
0	12952	4299.989333523564	1
0	12955	4302.306841490098	0
0	12961	4303.147843900052	1
0	12966	4306.047554888844	2
0	12968	4308.850589004558	3
0	12969	4310.717491095364	2
0	12974	4311.692445741266	1
0	12981	4313.083072056174	0
0	13003	4319.795766626079	1
0	13004	4321.414202618996	0
0	13010	4322.628035833192	1
0	13011	4322.931820550496	0
0	13029	4328.665453780682	1
0	13030	4330.604956780811	0
0	13043	4338.81712220383	1
0	13045	4339.09319230302	2
0	13047	4339.140811086176	3
0	13055	4340.806753970017	4
0	13058	4343.945704185915	3
0	13063	4344.518120703411	2
0	13068	4344.57180927387	1
0	13077	4346.570275872696	2
0	13078	4347.043099012524	1
0	13083	4349.327275904599	0
0	13090	4352.448595216501	1
0	13092	4352.488665890004	2
0	13098	4356.122713325343	3
0	13099	4356.710709430459	2
0	13104	4357.316623935305	1
0	13111	4358.353189605759	0
0	13119	4358.417589269373	1
0	13121	4358.718229333017	2
0	13125	4362.293784850543	1
0	13130	4362.578249638858	0
0	13134	4362.754654153216	1
0	13139	4364.906386085997	2
0	13140	4367.294931909728	1
0	13145	4370.603023724378	0
0	13159	4373.029892058185	1
0	13161	4374.591406680873	0
0	13172	4375.593502349204	1
0	13173	4376.445543421001	0
0	13195	4381.238896007428	1
0	13206	4393.031472688064	0
0	13212	4393.180584884539	1
0	13215	4395.875783599096	2
0	13218	4399.244101069725	1
0	13225	4400.021657012466	2
0	13227	4400.580300914391	3
0	13228	4402.897719949447	2
0	13235	4403.671565949697	1
0	13241	4403.78574987563	2
0	13244	4403.952366594099	1
0	13249	4404.099180089104	0
0	13276	4412.987939181554	1
0	13281	4415.273139759914	0
0	13292	4417.798831383551	1
0	13293	4418.01212297528	0
0	13313	4424.665324438571	1
0	13315	4426.61330215991	2
0	13317	4427.108419648783	3
0	13318	4427.589518700018	2
0	13323	4428.229910235082	1
0	13331	4434.863535342364	2
0	13334	4436.933807246473	1
0	13341	4438.662485203716	0
0	13357	4440.298149301557	1
0	13360	4441.185964034097	2
0	13362	4441.249262760096	3
0	13363	4441.284041002781	2
0	13370	4441.802255732441	1
0	13377	4443.051636918252	0
0	13390	4449.118554338648	1
0	13396	4452.597046303674	0
0	13411	4454.295430720014	1
0	13414	4454.604634692706	0
0	13427	4458.529359589752	1
0	13429	4459.655429787461	2
0	13443	4467.722902495866	1
0	13448	4467.827425075586	0
0	13459	4468.861112827966	1
0	13462	4469.493730830599	0
0	13476	4472.411372650821	1
0	13477	4472.730207757014	0
0	13489	4475.21246117037	1
0	13491	4478.508725201467	0
0	13497	4478.565880838519	1
0	13503	4485.001567753548	0
0	13522	4486.683261807411	1
0	13523	4486.953027699166	0
0	13549	4495.964909583029	1
0	13551	4499.889731117926	2
0	13553	4500.023271853228	3
0	13555	4501.245957073074	4
0	13559	4502.965858301918	5
0	13561	4507.746237183773	6
0	13562	4509.571735488376	5
0	13567	4509.726777589694	4
0	13573	4510.999265154641	5
0	13576	4511.521268582002	4
0	13582	4512.87931067659	5
0	13584	4514.150251487265	4
0	13591	4514.296780892259	3
0	13597	4515.513006201148	2
0	13610	4520.153039492233	3
0	13615	4520.285127508633	4
0	13617	4520.63235039927	5
0	13622	4530.091492365451	4
0	13627	4530.345953725642	3
0	13635	4531.513467579505	4
0	13636	4531.820372350795	3
0	13641	4531.907969686999	2
0	13650	4534.542843690739	1
0	13657	4538.095224435893	2
0	13663	4539.056836126429	3
0	13665	4539.379262349098	4
0	13668	4539.635839032166	3
0	13674	4540.034135935842	2
0	13680	4541.843848094396	1
0	13685	4543.720429019627	0
0	13715	4548.36910191753	1
0	13717	4550.310898033392	2
0	13724	4553.42129530905	1
0	13729	4554.113305193255	0
0	13750	4556.032217619638	1
0	13751	4556.207742012079	0
0	13757	4556.235174716596	1
0	13762	4558.176311496761	0
0	13775	4562.913522875542	1
0	13777	4563.949572965677	0
0	13783	4564.077052588718	1
0	13784	4564.252484981729	0
0	13798	4566.681975652138	1
0	13800	4569.023322701423	0
0	13809	4569.913469729142	1
0	13815	4572.481957283102	0
0	13822	4572.894478697047	1
0	13824	4573.159177586056	2
0	13826	4573.868615688527	3
0	13827	4574.304594830518	2
0	13832	4574.309342425305	1
0	13837	4574.508198030773	0
0	13849	4578.073617854389	1
0	13851	4578.464408883392	2
0	13856	4581.328083768809	1
0	13862	4581.925111192332	2
0	13863	4583.08114404343	1
0	13870	4586.122588450812	2
0	13873	4586.885030695576	3
0	13874	4587.278949311366	2
0	13880	4588.520669567995	1
0	13885	4589.134735500114	0
0	13895	4590.24954824755	1
0	13901	4592.800413707665	2
0	13904	4595.398729501552	1
0	13912	4597.766110884128	2
0	13915	4599.806880151902	1
0	13920	4599.965089778516	0
0	13928	4601.826148085869	1
0	13931	4602.516942203156	2
0	13933	4602.854534524379	1
0	13939	4605.754380737014	0
0	13952	4608.050622350277	1
0	13955	4610.349719537296	0
0	13961	4611.876993982474	1
0	13962	4612.82238041399	0
0	13969	4615.175541088154	1
0	13970	4615.583996171972	0
0	13998	4628.238136383233	1
0	14000	4628.333559603044	2
0	14001	4628.502606206134	1
0	14007	4628.655935599274	2
0	14008	4630.306858396848	1
0	14013	4630.787817892203	0
0	14033	4639.743982323695	1
0	14035	4640.291220134373	2
0	14038	4642.263723769522	3
0	14039	4642.4688039879	2
0	14045	4643.338336419847	3
0	14051	4644.536455428302	4
0	14054	4647.424812216908	3
0	14059	4648.031142402812	2
0	14068	4650.335112056789	3
0	14070	4652.090248852845	4
0	14073	4652.839519091109	3
0	14080	4653.340247673528	4
0	14089	4656.697050193437	5
0	14090	4656.715453852924	4
0	14100	4660.346308067148	3
0	14107	4661.316478386778	2
0	14112	4661.515811285935	1
0	14118	4661.900641852837	2
0	14123	4666.641893618161	3
0	14124	4669.68564763474	2
0	14131	4670.870050237828	1
0	14138	4672.534977254784	0
0	14153	4674.532566141877	1
0	14156	4678.430648434716	0
0	14201	4686.922793612599	1
0	14211	4694.833274968376	2
0	14212	4695.166295894684	1
0	14218	4697.089139869845	0
0	14232	4700.36655293762	1
0	14234	4700.624151349777	2
0	14235	4701.091102025677	1
0	14241	4705.510028046193	0
0	14248	4705.716087747533	1
0	14249	4705.961983512271	0
0	14264	4709.420322909725	1
0	14265	4711.755222835027	0
0	14272	4712.062242258245	1
0	14274	4712.275014496183	2
0	14276	4712.835564428017	3
0	14277	4713.315929863633	2
0	14285	4717.090774787411	1
0	14291	4717.54441335876	2
0	14295	4721.076235993793	1
0	14300	4721.929175740926	0
0	14325	4732.968949020608	1
0	14326	4733.058538567318	0
0	14332	4734.153375417381	1
0	14336	4735.845199872209	0
0	14345	4736.042183761176	1
0	14347	4736.050569433906	2
0	14350	4736.698071109833	1
0	14357	4737.247433085446	2
0	14359	4742.122239953842	1
0	14366	4747.056133860938	2
0	14367	4747.580439300237	1
0	14377	4750.348942815998	0
0	14407	4761.940078553601	1
0	14408	4762.323093316332	0
0	14414	4762.618777442459	1
0	14419	4764.202571840666	2
0	14421	4764.970991358849	1
0	14429	4766.445657978578	0
0	14465	4775.143986342354	1
0	14468	4776.711527959879	0
0	14476	4777.13816245705	1
0	14478	4777.588036690584	0
0	14499	4782.860776149879	1
0	14500	4782.909845913156	0
0	14506	4783.27856130746	1
0	14509	4786.711381601822	2
0	14512	4791.723770741641	1
0	14517	4792.130685436644	0
0	14523	4792.524230068958	1
0	14524	4793.7239790825	0
0	14531	4794.687738430646	1
0	14532	4794.818514717233	0
0	14538	4795.545022036089	1
0	14543	4798.283187655246	2
0	14545	4799.622433670958	1
0	14551	4801.36285331837	0
0	14589	4815.169357983897	1
0	14590	4817.39764756387	0
0	14615	4832.111731420954	1
0	14618	4832.824084456144	0
0	14629	4836.152237483147	1
0	14631	4836.73380340902	0
0	14641	4843.191319352106	1
0	14646	4844.173175896918	2
0	14648	4845.726427934988	3
0	14649	4849.036292357922	2
0	14658	4849.974895351184	1
0	14665	4850.493812123974	2
0	14667	4850.508007518812	3
0	14668	4851.64530528723	2
0	14674	4852.042623510987	1
0	14679	4852.239665866822	0
0	14692	4854.018417000673	1
0	14697	4855.828922789808	2
0	14698	4855.876172352598	1
0	14703	4855.997910092963	0
0	14716	4857.806294317764	1
0	14718	4860.182482651843	2
0	14719	4861.178130910593	1
0	14727	4868.657053546338	0
0	14745	4873.05910012753	1
0	14748	4874.390840596487	2
0	14749	4874.705239146859	1
0	14754	4875.021616136971	0
0	14794	4880.882319710465	1
0	14795	4881.202464039063	0
0	14802	4883.639803685153	1
0	14804	4884.991835661751	2
0	14805	4885.728693682938	1
0	14811	4886.587900538237	2
0	14813	4886.723172276596	1
0	14818	4887.139782172026	0
0	14829	4887.724818220645	1
0	14832	4888.364224081732	0
0	14841	4889.286071843758	1
0	14844	4889.62389182074	0
0	14885	4905.217559665653	1
0	14887	4906.031665911058	2
0	14892	4909.942909222227	1
0	14897	4910.231350858685	0
0	14906	4911.54335709652	1
0	14915	4916.122151445795	2
0	14918	4920.249300908584	1
0	14923	4920.815935060014	0
0	14955	4928.681129349575	1
0	14957	4928.775922259349	2
0	14959	4930.07675289708	3
0	14961	4930.485758743444	4
0	14962	4932.041793270457	3
0	14968	4934.634523008153	4
0	14969	4935.180531891615	3
0	14975	4935.436451606545	4
0	14979	4940.167771398071	5
0	14980	4940.248628461785	4
0	14986	4942.550356742919	3
0	14991	4943.352158156527	2
0	14999	4945.382667288648	1
0	15005	4945.897392377514	2
0	15007	4946.865508769045	1
0	15013	4946.901320674847	2
0	15014	4951.920325011324	1
0	15024	4956.549081278457	0
0	15051	4971.786269647797	1
0	15054	4974.313501024875	0
0	15068	4979.978897998387	1
0	15069	4980.19466877482	0
0	15086	4982.958723632691	1
0	15087	4984.108183931148	0
0	15095	4990.020474909528	1
0	15100	4991.828336560649	0
0	15107	4993.899673095654	1
0	15111	4997.818113482777	2
0	15112	5000.207498314119	1
0	15120	5003.10059571276	0
0	15135	5005.635844061384	1
0	15137	5007.129971811999	2
0	15140	5008.761897643132	1
0	15145	5008.796684649262	0
0	15172	5015.894444483546	1
0	15176	5020.01488712813	0
0	15183	5021.469078661992	1
0	15184	5022.473720702148	0
0	15216	5030.5506323378	1
0	15220	5034.797502728727	2
0	15221	5034.939428450099	1
0	15228	5036.596790155266	0
0	15240	5037.56852804172	1
0	15242	5038.993272863337	0
0	15261	5042.022216853605	1
0	15264	5044.077643355572	2
0	15265	5044.483605458922	1
0	15270	5045.674305304729	0
0	15284	5050.551042806191	1
0	15285	5052.320291052043	0
0	15304	5058.598139207137	1
0	15306	5060.371836156314	2
0	15308	5060.867596430006	3
0	15310	5061.917402580039	4
0	15312	5066.998890948844	5
0	15313	5068.457060345057	4
0	15320	5070.810042515851	5
0	15321	5071.659394417006	4
0	15326	5072.099648001093	3
0	15331	5074.289469893014	2
0	15337	5074.317839503057	1
0	15343	5074.386255332941	2
0	15347	5075.739642985958	3
0	15354	5079.413829496924	4
0	15355	5082.245030632473	3
0	15360	5082.411437893944	2
0	15367	5083.278876723956	1
0	15373	5083.694230838054	2
0	15374	5084.20589959283	1
0	15384	5087.039531196453	2
0	15386	5088.53225400423	3
0	15388	5088.559622669963	4
0	15392	5089.698401835565	5
0	15393	5091.94400144883	4
0	15401	5092.737452634834	5
0	15405	5094.157877514205	4
0	15412	5094.788607311707	5
0	15414	5101.703582575956	6
0	15415	5103.087306613528	5
0	15427	5108.931026134177	4
0	15433	5109.665609089119	3
0	15439	5110.541590891497	4
0	15441	5111.060352132102	5
0	15442	5111.77891874542	4
0	15450	5113.154018318204	3
0	15456	5113.649733487683	4
0	15459	5115.989208843933	5
0	15462	5120.951894603765	4
0	15467	5120.998286092623	3
0	15473	5121.144276222199	4
0	15479	5122.605975442655	5
0	15480	5123.361034938978	4
0	15489	5127.230824678872	5
0	15494	5129.977564047885	6
0	15497	5132.333643363054	5
0	15503	5134.064596958507	6
0	15506	5135.402186476385	5
0	15511	5135.578047336535	4
0	15518	5136.203901688946	5
0	15519	5137.956307533433	4
0	15524	5138.843508111258	3
0	15529	5140.705176776941	2
0	15535	5141.912876155833	1
0	15541	5142.846595345737	0
0	15570	5149.415392606188	1
0	15575	5152.461740634635	2
0	15578	5153.216824901125	1
0	15585	5156.702902913447	0
0	15621	5169.810719882974	1
0	15623	5171.679809588372	2
0	15624	5172.765672279185	1
0	15629	5172.926770545862	0
0	15639	5177.19864806543	1
0	15641	5177.605059897319	2
0	15644	5179.691683748226	1
0	15649	5179.84542891455	0
0	15665	5183.109160801196	1
0	15666	5183.748578112285	0
0	15692	5190.685104565624	1
0	15694	5192.913434395212	2
0	15696	5193.175893586435	3
0	15699	5194.340665865872	2
0	15707	5197.919078194737	3
0	15709	5200.288285991562	2
0	15715	5201.341744085089	1
0	15721	5201.349796915838	2
0	15722	5202.249281190227	1
0	15728	5202.374060382029	2
0	15731	5203.936153120814	1
0	15736	5204.119409505005	0
0	15783	5220.542281837259	1
0	15784	5221.550644271662	0
0	15814	5230.684475700127	1
0	15816	5230.687975966069	2
0	15820	5231.372828172451	3
0	15821	5234.028458698563	2
0	15828	5238.665749102948	1
0	15833	5239.747263111656	0
0	15846	5243.829977852743	1
0	15847	5244.658122924685	0
0	15862	5249.830438930569	1
0	15867	5251.364558549082	0
0	15887	5255.106965877711	1
0	15892	5255.997353176231	2
0	15893	5256.18549503213	1
0	15899	5256.374626430724	2
0	15901	5261.396416921556	1
0	15907	5263.969919675746	0
0	15917	5265.16160518704	1
0	15919	5265.6413782295	2
0	15920	5265.805349035228	1
0	15925	5265.913815845549	0
0	15939	5271.083189198079	1
0	15940	5271.581518209803	0
0	15946	5271.781243434408	1
0	15949	5272.400397929797	0
0	15958	5273.15915546182	1
0	15967	5276.919288199675	2
0	15972	5279.493687859333	3
0	15974	5280.544938048052	4
0	15975	5281.105512618233	3
0	15983	5283.509417849281	2
0	15989	5283.769135810011	3
0	15991	5283.778410512068	4
0	15992	5284.109637649675	3
0	15999	5285.867445947771	2
0	16004	5285.906017597747	1
0	16009	5286.196684783147	0
0	16026	5292.834537965496	1
0	16028	5293.376066872325	2
0	16033	5296.007870605052	1
0	16041	5298.249931957093	2
0	16043	5299.508253737718	1
0	16056	5306.572860510357	0
0	16078	5310.964943713603	1
0	16083	5312.004062801533	0
0	16102	5320.330384494154	1
0	16103	5322.472757144249	0
0	16116	5329.125111174911	1
0	16117	5331.782386859911	0
0	16147	5339.583721449165	1
0	16149	5339.932649208235	2
0	16151	5340.71597210198	3
0	16153	5340.986221838417	4
0	16156	5342.941060693715	3
0	16161	5343.082127057813	2
0	16168	5346.740246361054	3
0	16169	5346.795085538988	2
0	16177	5347.947736644297	3
0	16182	5348.990036476469	4
0	16184	5349.554425832365	5
0	16185	5349.780684055949	4
0	16191	5350.608892526021	3
0	16198	5351.366863379951	4
0	16200	5353.437588883948	3
0	16211	5356.232486502699	4
0	16212	5356.514331220633	3
0	16218	5357.80900268942	4
0	16220	5359.054948341494	3
0	16228	5359.705374805485	4
0	16231	5365.294610276167	5
0	16233	5366.022545785816	6
0	16236	5368.861895000481	5
0	16243	5374.24640434922	6
0	16244	5376.103659698339	5
0	16252	5376.16311124391	6
0	16254	5376.356446444574	5
0	16265	5378.763743986326	4
0	16270	5378.926625242809	3
0	16280	5382.799756786916	4
0	16284	5384.101229513291	5
0	16286	5385.382562855662	6
0	16287	5386.785432093933	5
0	16293	5388.607405713452	4
0	16301	5390.011916214194	5
0	16305	5390.662517551053	6
0	16307	5391.857856825176	5
0	16313	5392.903432167273	6
0	16315	5393.046993218368	7
0	16317	5393.131069004039	8
0	16323	5394.669035991621	9
0	16325	5395.496981538661	10
0	16327	5397.628303207567	9
0	16335	5399.457284987836	8
0	16341	5400.195382962237	9
0	16343	5405.011728415797	8
0	16349	5406.651103611872	7
0	16354	5407.53991778285	6
0	16360	5409.093868229436	5
0	16365	5409.150479109146	4
0	16373	5412.879284361635	5
0	16374	5413.562299965368	4
0	16380	5413.66244407958	5
0	16382	5414.476831428196	4
0	16388	5415.10049802638	5
0	16389	5415.355253287473	4
0	16401	5419.307814281169	3
0	16410	5423.13343690338	2
0	16417	5430.537502879383	1
0	16422	5431.184366343462	0
0	16431	5432.074095729047	1
0	16432	5433.012633275772	0
0	16455	5436.570505285526	1
0	16457	5436.686460211912	2
0	16458	5436.842346724748	1
0	16465	5437.759670214692	2
0	16468	5443.585281886789	3
0	16469	5444.24142770364	2
0	16477	5446.840821038101	1
0	16482	5447.834270971173	0
0	16489	5448.230540308074	1
0	16492	5450.436143007934	0
0	16503	5451.124837127736	1
0	16504	5451.400390228741	0
0	16530	5455.344763800527	1
0	16532	5456.283964082527	2
0	16535	5457.146620731487	1
0	16541	5458.092189091231	2
0	16548	5462.835196170997	1
0	16556	5465.503327224823	2
0	16557	5466.191386275678	1
0	16566	5468.165484855135	2
0	16567	5469.713733403992	1
0	16572	5470.368874334493	0
0	16588	5473.610432865002	1
0	16590	5474.568846845468	2
0	16593	5475.259663127063	3
0	16597	5477.329502187656	2
0	16603	5477.3581562906	3
0	16605	5477.686885802446	4
0	16606	5478.29831443015	3
0	16613	5478.471874022495	4
0	16615	5478.531049023537	5
0	16616	5478.551162269885	4
0	16621	5478.558743802529	3
0	16628	5482.144856819852	2
0	16634	5482.156125601394	3
0	16638	5485.035282811484	4
0	16640	5485.150114016486	5
0	16643	5485.813601378513	4
0	16652	5491.3336364849	3
0	16658	5496.582759799124	2
0	16664	5496.973693572922	1
0	16670	5497.180324292488	2
0	16672	5497.681142756163	3
0	16678	5501.901006816682	2
0	16684	5504.622004343725	3
0	16687	5505.741440378598	2
0	16692	5505.764545437112	1
0	16699	5507.117457761279	2
0	16700	5508.109915050527	1
0	16706	5508.216184830411	0
0	16712	5508.764454488837	1
0	16714	5508.785217973845	2
0	16716	5509.576886202361	3
0	16718	5510.295966148436	4
0	16720	5511.737261582652	3
0	16726	5512.71386102286	4
0	16729	5515.522755994891	3
0	16739	5518.853149812661	4
0	16741	5520.096658257214	5
0	16745	5525.950954005477	6
0	16747	5526.052189541269	7
0	16751	5526.939468608114	8
0	16753	5529.099325271673	9
0	16754	5531.031288680142	8
0	16760	5534.266976099163	9
0	16764	5536.264324276573	10
0	16765	5536.388380753715	9
0	16771	5537.628679412858	10
0	16773	5538.076792611574	11
0	16781	5547.698329499308	10
0	16786	5549.541824287066	9
0	16792	5549.665631620383	10
0	16795	5554.25770070084	9
0	16801	5556.396360620051	8
0	16806	5556.930292485911	7
0	16813	5559.91018915239	8
0	16814	5560.004540462802	7
0	16819	5560.313173483875	6
0	16825	5560.449154562379	7
0	16832	5564.87660286515	8
0	16833	5565.568334016767	7
0	16839	5566.978935287373	6
0	16845	5568.446298755605	5
0	16850	5568.583068395332	4
0	16857	5571.379158131197	3
0	16863	5571.48151514172	4
0	16864	5572.520243391629	3
0	16870	5576.334958339868	4
0	16872	5577.481387874215	5
0	16873	5580.65086013684	4
0	16878	5581.044848570147	3
0	16885	5582.60448474049	4
0	16888	5587.626250545914	3
0	16894	5588.277555024928	4
0	16897	5589.561315299032	5
0	16900	5590.405840529094	6
0	16902	5590.896695429601	7
0	16903	5593.142778407814	6
0	16908	5594.290792938094	5
0	16918	5600.142869532521	6
0	16919	5600.880269807043	5
0	16925	5601.463933649263	6
0	16926	5605.530313684272	5
0	16932	5606.2796647034	6
0	16934	5607.248211583493	5
0	16939	5607.709024536181	4
0	16944	5607.973589372035	3
0	16952	5608.626026130022	4
0	16953	5608.959111884447	3
0	16958	5609.475771070998	2
0	16963	5611.994618784217	1
0	16974	5614.626797893923	2
0	16975	5617.192893566489	1
0	16981	5617.316329810393	2
0	16984	5619.353990885307	3
0	16985	5620.27259470088	2
0	16990	5621.005011276282	1
0	16994	5621.252326925039	2
0	16999	5628.942353612176	3
0	17000	5631.730903305116	2
0	17006	5632.308988170387	3
0	17011	5633.398294099048	4
0	17013	5633.516809883036	5
0	17017	5634.590616772206	6
0	17019	5634.902710558546	7
0	17020	5635.545248202524	6
0	17027	5636.454580896428	5
0	17032	5639.801015775408	4
0	17040	5644.294869399665	3
0	17046	5644.321873106839	4
0	17047	5645.805054879026	3
0	17053	5646.789599326574	4
0	17055	5646.971461881137	3
0	17060	5647.932994468014	2
0	17066	5649.397049151352	3
0	17071	5650.515162305939	4
0	17074	5652.066599744829	3
0	17084	5652.951433040708	4
0	17090	5655.582594205537	3
0	17095	5655.920978782504	2
0	17101	5658.009244744565	1
0	17106	5658.149287189335	0
0	17127	5661.690528012903	1
0	17128	5661.766415921765	0
0	17136	5663.370387419848	1
0	17137	5663.835337534573	0
0	17143	5663.890603569347	1
0	17144	5664.094752014668	0
0	17167	5671.576938981581	1
0	17172	5678.171274363293	0
0	17183	5681.419285449946	1
0	17191	5684.002243437913	2
0	17193	5684.271230861497	3
0	17198	5684.910879472477	4
0	17199	5686.845629736969	3
0	17204	5688.418730640151	2
0	17211	5689.108616693736	1
0	17219	5691.737177989874	2
0	17221	5693.081313753462	3
0	17222	5693.785253970105	2
0	17228	5695.368992312538	1
0	17234	5695.556752051378	2
0	17236	5695.651108487637	3
0	17237	5696.181778567296	2
0	17245	5698.786709745033	1
0	17250	5698.885391458112	0
0	17269	5707.661421627107	1
0	17272	5709.46614928927	0
0	17298	5717.177492793	1
0	17299	5717.517890053393	0
0	17308	5717.857129173519	1
0	17309	5718.113697196608	0
0	17324	5722.987167013098	1
0	17329	5727.666502940511	0
0	17338	5729.321582063145	1
0	17340	5731.116691538366	2
0	17341	5731.310610718775	1
0	17347	5731.785711921275	2
0	17349	5732.465963479624	1
0	17354	5733.055455062608	0
0	17382	5741.764413798466	1
0	17386	5742.363762623301	2
0	17387	5742.974004254025	1
0	17396	5744.12562962894	2
0	17397	5744.829866929616	1
0	17402	5745.257175923477	0
0	17414	5747.631016896114	1
0	17415	5747.635316106125	0
0	17437	5758.972053646515	1
0	17438	5759.519546318631	0
0	17444	5759.610203238051	1
0	17445	5759.772112746883	0
0	17452	5761.87610478334	1
0	17454	5762.178385125967	2
0	17457	5762.712246162769	3
0	17460	5764.247051106933	2
0	17468	5765.794369464281	3
0	17470	5765.900048397646	4
0	17473	5766.345668291496	5
0	17475	5767.676578303763	6
0	17479	5768.972266762807	7
0	17480	5771.537393577841	6
0	17486	5771.989145376951	5
0	17493	5773.598951502655	4
0	17503	5773.78783770427	5
0	17506	5776.216607529877	6
0	17507	5776.403277857895	5
0	17513	5777.239327166443	4
0	17520	5779.89254750399	5
0	17526	5781.49104293195	6
0	17529	5782.292447245073	5
0	17536	5783.592170497345	4
0	17542	5784.852203241566	5
0	17543	5785.012983095046	4
0	17548	5785.205477363384	3
0	17555	5786.426893574902	4
0	17559	5788.282383095743	5
0	17561	5788.438393327164	6
0	17562	5788.994951784881	5
0	17568	5789.082305020421	6
0	17571	5790.668213565473	5
0	17576	5790.68434303124	4
0	17582	5791.548512148628	3
0	17591	5793.395799805273	2
0	17598	5793.586558235852	3
0	17599	5795.822837324967	2
0	17604	5796.095054190126	1
0	17611	5796.762562292996	2
0	17613	5797.202513397852	3
0	17623	5802.268413010824	2
0	17629	5804.342211869441	3
0	17634	5806.749840693059	2
0	17640	5807.611708874726	3
0	17641	5807.6757876023	2
0	17646	5808.133575431043	1
0	17652	5808.867951171401	2
0	17655	5812.531918575142	1
0	17660	5813.804787114667	0
0	17671	5813.978230234366	1
0	17678	5816.798338577809	0
0	17692	5818.806873177018	1
0	17695	5820.967561518187	0
0	17703	5823.62894033213	1
0	17708	5824.588281437337	2
0	17709	5825.247502248262	1
0	17715	5826.223287491099	2
0	17717	5833.613282729916	1
0	17722	5834.942235035804	0
0	17737	5837.42529005416	1
0	17745	5843.645455621309	2
0	17746	5844.222555585576	1
0	17751	5844.599726830839	0
0	17763	5846.780113352488	1
0	17765	5847.418190345622	0
0	17785	5850.770947909052	1
0	17786	5851.063035039547	0
0	17803	5860.765100046502	1
0	17804	5860.985227248594	0
0	17819	5862.515126298965	1
0	17822	5864.499086423818	0
0	17836	5870.64651314145	1
0	17838	5871.819393538483	2
0	17842	5872.574951113753	3
0	17844	5873.875003127093	2
0	17850	5874.50601343414	3
0	17854	5875.188128568753	2
0	17862	5877.264030815882	3
0	17863	5881.406768723649	2
0	17869	5881.447484941854	3
0	17872	5882.788108242183	4
0	17879	5885.226419557321	5
0	17880	5885.336908385749	4
0	17887	5886.083528050025	5
0	17890	5889.067485228903	4
0	17896	5889.822390359251	5
0	17899	5895.975154578309	6
0	17901	5896.950093295333	7
0	17903	5899.757997697353	8
0	17904	5900.092704029718	7
0	17909	5900.200777428651	6
0	17918	5902.227640693085	7
0	17920	5903.754651509147	6
0	17926	5905.192559452329	5
0	17933	5910.725985615459	4
0	17938	5910.947737032392	3
[...]
4	82728	26705.09250954277	5973.3082449624
4	82739	26708.006208139786	5975.6012869883
4	82757	26711.641351295825	5964.400842496
4	82762	26713.328752565369	5963.1949751875
4	82772	26719.948392089306	5969.5820557211
4	82777	26723.211320483461	5971.1741262416
4	82782	26724.831857834772	5964.9941603206
4	82787	26726.319724114414	5950.2566873756
4	82792	26727.50218933284	5942.8277280914
4	82807	26735.383737400599	5940.3183476627
4	82920	26774.877214507582	5976.9740831122
4	82925	26775.576087127422	5975.570855668
4	82930	26778.048712844408	5975.0017943319
4	82937	26784.708438677627	5980.858284815
4	82952	26791.588966040011	5986.9540745353
4	82959	26794.517131453168	5986.3735560146
4	82980	26800.297064186523	5990.5930123938
4	82997	26806.726860064706	5991.6319143446
4	83002	26809.488130900944	5990.1755114609
4	83011	26813.110072391689	5992.4745953335
4	83018	26814.432867516982	5977.5914817174
4	83043	26821.720031787304	5978.4828025276
4	83063	26828.732235249725	5980.1802198966
4	83070	26831.613973318617	5980.7241650368
4	83092	26841.437218842631	5978.606030287
4	83099	26844.390958775667	5972.447040646
4	83123	26849.80919208313	5977.0644368387
4	83303	26898.406006046055	6008.6506051899
4	83316	26903.004078124193	6008.155075578
4	83321	26903.776487408817	5996.1173603428
4	83327	26903.939274684169	5987.4294387689
4	83334	26905.636753565643	5987.8827828569
4	83407	26930.30273785319	5996.3625969259
4	83415	26932.191608138232	5996.3486758603
4	83420	26933.221251910209	5992.7999454028
4	83427	26934.297691017007	5991.2379322541
4	83441	26941.49958821123	5996.636683309
4	83451	26942.699107499805	5994.4828496908
4	83460	26946.986954945816	5997.0204003823
4	83476	26954.449557547634	6003.6039932748
4	83499	26960.075899581603	6001.0870057404
4	83508	26960.998076199435	5995.7415233378
4	83529	26966.691202196674	5999.9052205973
4	83536	26968.703204066391	6000.6537749439
4	83675	27003.760120170845	6032.7235210816
4	83686	27004.889491016484	6033.4139430788
4	83696	27007.600835732203	6031.1369239885
4	83714	27009.152187991516	6029.476439822
4	83726	27017.866196409323	6031.0212234683
4	83740	27021.522012309698	6033.8419509125
4	83745	27022.76915567739	6032.7113810847
4	83752	27027.614830881325	6028.5497127211
4	83822	27047.403397070484	6041.5495996567
4	83828	27051.457565901571	6044.5714653393
4	83858	27072.299921218819	6064.5744152454
4	83964	27109.685652524545	6096.8806055844
4	83969	27110.445331715507	6097.3668286697
4	83976	27112.637216083983	6096.4797928476
4	84004	27121.673646398658	6100.7332768119
4	84015	27126.011460605547	6101.6358857541
4	84020	27130.755769954539	6089.8049532061
4	84028	27133.073853825762	6088.8444130014
4	84057	27139.345968391452	6094.681173664
4	84068	27144.94316759801	6095.585537382
4	84081	27145.771960191663	6086.5194597837
4	84086	27146.128429797049	6079.3298555259
4	84097	27148.792320907803	6081.5863724638
4	84120	27156.223398415877	6087.5712727331
4	84132	27159.309712092448	6086.6746043041
4	84143	27162.843011822986	6087.0564376657
4	84250	27197.340203627666	6117.3235742587
4	84257	27197.438508053481	6115.9873021534
4	84262	27198.981247493632	6115.8906961496
4	84267	27204.100832943496	6110.6465942928
4	84276	27207.701238979217	6099.3191122899
4	84389	27240.302901408897	6128.3092434272
4	84394	27240.817882602674	6127.3891149127
4	84413	27253.036989444845	6134.6963784188
4	84436	27257.018166920334	6131.5409731689
4	84450	27264.898682829107	6137.4971291886
4	84465	27278.822584597688	6146.1745086672
4	84573	27313.677489236735	6176.2758782252
4	84593	27320.079826684157	6177.4783343682
4	84629	27330.151821068054	6183.1230415272
4	84701	27347.42761435447	6194.496745433
4	84711	27347.949627046375	6194.6131597387
4	84716	27348.81797702156	6190.7102553588
4	84725	27349.987054178972	6189.5897832904
4	84736	27351.225528883144	6190.5381290527
4	84767	27360.985707193166	6187.500732118
4	84779	27365.82131982418	6184.0716345354
4	84808	27371.468211856517	6181.9497245344
4	84833	27383.527844107571	6193.7205027946
4	84839	27387.483956149175	6197.4173503932
4	84844	27388.361086756246	6167.5523879625
4	84849	27390.574825801278	6161.0161909878
4	84859	27399.739323231098	6169.6153446497
4	84866	27405.019946685581	6161.7945494083
4	84873	27409.028698626657	6163.95995824
4	84885	27411.573859233316	6148.0682844367
4	84891	27413.304047544452	6141.7508904664
4	84896	27414.929377565912	6142.0050858416
4	84907	27420.931044443508	6133.2650923355
4	84936	27428.657659203345	6135.1828178651
4	84951	27434.519970797673	6133.1782644453
4	84977	27442.124101201538	6139.3270316835
4	84984	27445.28870967488	6136.0808719615
4	85059	27470.151303876093	6149.0611220652
4	85064	27471.036862337953	6123.9966920468
4	85070	27475.963480934242	6124.1238762324
4	85075	27476.936410225759	6122.5569887064
4	85084	27480.173385410229	6112.1569718163
4	85096	27482.030877364019	6112.2798382897
4	85116	27496.891038164749	6113.0931174177
4	85142	27502.228987551565	6113.5773249858
4	85147	27503.224875828254	6109.4051593775
4	85154	27505.52428176531	6110.4253214821
4	85168	27509.145176899855	6111.646344277
4	85177	27510.633397116547	6111.8622413037
4	85204	27524.284484349513	6119.3725360698
4	85249	27532.97478112523	6125.6127190466
4	85263	27537.202714797094	6125.4424589386
4	85268	27539.189752573479	6126.8789079193
4	85277	27543.077795445448	6129.9217694558
4	85289	27550.405820808784	6128.12749902
4	85298	27558.540621996675	6116.856531314
4	85308	27563.921800691297	6111.2071746769
4	85314	27565.571383822621	6112.1690926689
4	85322	27571.588939338224	6099.1422605812
4	85379	27587.7112505934	6113.2535556008
4	85413	27605.202285635385	6124.4069882415
4	85445	27610.614511599908	6128.8699794364
4	85451	27612.874633544467	6122.5783099826
4	85456	27614.548623267236	6123.1240544493
4	85474	27624.150250596569	6130.6939277796
4	85536	27648.649321381389	6149.2592981018
4	85543	27649.975756752238	6147.2396597431
4	85565	27653.983478216981	6119.1562275782
4	85570	27654.462151967123	6117.6443545008
4	85581	27660.866353604849	6121.8267340175
4	85696	27704.401179150439	6156.2601597016
4	85776	27725.858561972987	6172.2696937586
4	85784	27727.513788438531	6173.1473841888
4	85789	27727.609362341296	6170.3674203325
4	85798	27729.605957908834	6171.3153370168
4	85885	27744.491174220629	6183.7166290139
4	85896	27747.802065456199	6184.9033841059
4	85916	27751.505026887257	6176.3640200219
4	85923	27753.473979807406	6166.0863490589
4	85948	27769.320370872986	6178.1854292598
4	85966	27773.83211014003	6177.8650944521
4	85972	27776.247267337578	6166.5168910877
4	85981	27781.000098558092	6165.7178007741
4	86006	27790.934827459005	6157.000926207
4	86116	27833.746649594911	6192.7166407794
4	86144	27839.473612150613	6193.4050117771
4	86150	27844.268881082112	6194.4384047865
4	86165	27850.944327121798	6199.9742445298
4	86194	27857.3105094223	6205.7811086971
4	86343	27909.052154891998	6256.0569205406
4	86359	27911.385862898365	6249.2073568156
4	86370	27914.68617442707	6242.3613291375
4	86381	27922.390401711279	6248.5540744489
4	86401	27927.87981070049	6227.472724537
4	86413	27932.404299045718	6228.1729997242
4	86433	27940.754477967468	6235.524039516
4	86442	27942.024605983407	6234.2316127653
4	86453	27948.021036008959	6235.8836014308
4	86464	27955.903763993769	6235.3483365123
4	86531	27973.393050992239	6247.6556157435
4	86544	27981.129810801762	6247.9924966102
4	86557	27984.884922000806	6251.0145659016
4	86592	28000.043901731485	6261.7631163514
4	86626	28009.23363897499	6251.9396548849
4	86639	28009.899470100979	6250.6460619739
4	86644	28013.378722886319	6250.48553208
4	86657	28017.797864679974	6254.0522955149
4	86683	28028.029225258567	6259.8328509845
4	86731	28052.433456820966	6281.8028874075
4	86741	28055.719275021901	6283.8551824849
4	86758	28063.92918339235	6281.8496137422
4	86769	28070.502657970627	6276.3600451432
4	86803	28081.984824882439	6282.394908377
4	86811	28083.836042828661	6280.772407737
4	86816	28084.858485830292	6278.7795480807
4	86822	28085.091138984019	6272.7397835536
4	86827	28085.999430838108	6272.2191794843
4	86834	28089.131737086064	6269.4192420846
4	86839	28091.103932112545	6268.4248063673
4	86844	28092.744830916877	6269.8236154106
4	86853	28099.409091813268	6266.6534043488
4	86884	28106.289606238807	6272.9341215635
4	86895	28109.453140073101	6275.0512379231
4	86913	28112.867756065698	6274.1125868306
4	86935	28118.722947502729	6271.9349798103
4	86957	28129.602896610726	6279.3205836983
4	87095	28163.646728263082	6312.8370599186
4	87118	28166.300554753267	6294.862800838
4	87123	28168.412270140518	6290.7680645855
4	87128	28168.751671924291	6273.5279357128
4	87133	28168.948145388735	6273.0941308317
4	87139	28170.209744025008	6271.3758520844
4	87146	28171.83223853534	6269.4526946299
4	87157	28177.169453675786	6251.3962346669
4	87174	28187.276953991068	6261.0681406758
4	87183	28189.423339588608	6258.296795947
4	87244	28212.180413780439	6275.0080531519
4	87292	28222.047633386172	6283.4635930225
4	87317	28228.024014013392	6289.1150976007
4	87359	28241.921900496366	6300.5889991214
4	87372	28245.751247756631	6303.9532710096
4	87452	28276.433918607377	6329.473889461
4	87462	28280.327657525593	6329.5899202226
4	87476	28284.395798642749	6332.2721700433
4	87482	28287.123856582135	6325.7314888592
4	87499	28295.523672374307	6328.821347247
4	87600	28325.065935774383	6356.7773251659
4	87659	28342.185240561518	6368.1439431254
4	87692	28349.63901399565	6367.0639733887
4	87703	28352.204852927131	6368.3491579275
4	87708	28352.465140819032	6349.4199692605
4	87719	28355.250116260454	6344.2230678267
4	87770	28364.94006858429	6353.8627394343
4	87806	28379.251325746894	6367.9350695099
4	87836	28387.902604403066	6363.2061353985
4	87842	28388.492220497755	6362.3907672088
4	87847	28390.092840856527	6355.9944660872
4	87854	28395.550670942061	6359.8961545843
4	87861	28396.279936852183	6357.6586607023
4	87872	28397.107249602362	6353.5366789667
4	87884	28400.778030262024	6353.7551886698
4	87889	28403.031733456026	6334.6626994018
4	87894	28408.073030140296	6337.8879857858
4	87901	28409.85408373991	6338.4892971773
4	87913	28413.470899752549	6339.6401502561
4	87929	28420.226215118913	6346.1815627037
4	87936	28424.087390309519	6347.3480059338
4	87955	28428.033236066277	6349.4234966917
4	87960	28429.645817487904	6344.9871496128
4	87965	28430.386264194118	6344.521866724
4	87970	28432.70314339603	6341.3143647294
4	87979	28436.733363876219	6342.392527868
4	87984	28439.283136259832	6337.9064610557
4	87993	28444.217039057367	6337.5319882124
4	88159	28495.666328129408	6387.8746459591
4	88203	28504.503164474098	6394.6301977287
4	88212	28506.221334767458	6394.911877777
4	88217	28507.413606329314	6393.7580325819
4	88222	28507.878121916323	6392.1709034752
4	88227	28507.918886917112	6382.0329585822
4	88234	28509.666021459503	6365.4328959138
4	88255	28512.511975179943	6362.232617683
4	88266	28522.831652212408	6371.7516979764
4	88289	28532.390794128263	6353.9801447639
4	88300	28533.154859115307	6352.0243463479
4	88315	28538.338087263392	6355.4876610835
4	88366	28548.483509807578	6363.5437756638
4	88518	28603.833989321573	6414.647043628
4	88526	28607.577580309838	6402.2817255643
4	88537	28610.502735585288	6405.054004701
4	88547	28611.048713400524	6401.7619154016
4	88554	28612.977743203843	6397.397388849
4	88563	28618.964817788588	6392.7435086427
4	88577	28630.475006055019	6396.0421758619
4	88682	28661.476822240626	6419.8639772781
4	88687	28662.147453346265	6419.7607942598
4	88694	28662.765178234475	6420.0559737561
4	88724	28670.219277126043	6388.8079341509
4	88743	28683.048679965576	6398.2656079123
4	88772	28690.110981765286	6388.6518471291
4	88779	28691.512709008967	6389.2681178208
4	88822	28709.806020195309	6405.8453897225
4	88838	28712.294706940944	6408.232632685
4	88843	28715.862290317485	6411.4568832232
4	88848	28716.667957467626	6409.9338613978
4	88860	28720.579893790606	6400.3072752252
4	88870	28722.115092341703	6400.8038782404
4	88876	28726.537292062873	6404.4430580231
4	88884	28732.842441517847	6394.2471792256
4	88895	28734.427921628108	6392.7361700808
4	88902	28737.828983832501	6394.661281638
4	88919	28748.754858592127	6403.7105997251
4	88933	28754.171870057442	6400.5232167203
4	88948	28758.98902710404	6403.191354375
4	88997	28775.509788056214	6419.2039384654
4	89025	28780.632298996224	6422.2854434105
4	89063	28790.190216208201	6430.2271640754
4	89068	28793.487139302085	6424.746558788
4	89075	28796.470223314647	6421.6452467644
4	89090	28803.848006755201	6421.5818686112
4	89104	28817.492863965645	6432.2251364041
4	89111	28821.182343803254	6431.8977004255
4	89163	28834.460550553556	6444.8683618953
4	89168	28834.945443881739	6444.6493413693
4	89175	28839.364393313037	6447.1023221314
4	89191	28845.909147032821	6445.7006773166
4	89198	28848.762952597108	6443.3516856272
4	89219	28861.017996261069	6453.0690410044
4	89368	28913.476075695947	6502.9494249651
4	89375	28914.089302990978	6492.0798367662
4	89385	28915.430206032301	6486.9862208899
4	89390	28917.820689383915	6485.9799536176
4	89396	28919.466897424918	6486.2017955945
4	89407	28924.263750786802	6486.6885174117
4	89431	28930.926509320588	6489.6409270987
4	89448	28936.726466565683	6488.9786917677
4	89644	28984.651760752281	6527.9153391414
4	89649	28984.867707324881	6524.7463422191
4	89656	28988.441028639966	6520.3391549995
4	89661	28989.041231956762	6518.2989351997
4	89668	28994.509445804062	6515.2553474096
4	89685	28998.115953351786	6517.9530643474
4	89721	29013.973622056094	6533.2930137004
4	89827	29044.814201523272	6545.4411519642
4	89847	29048.727427238826	6547.4990061984
4	89886	29058.116182010807	6550.3554184996
4	89897	29063.071497827059	6552.7749842618
4	89903	29064.186571998328	6542.7038717772
4	89910	29066.22247436082	6537.3701154583
4	89915	29066.906772093959	6532.6604911832
4	89920	29069.194572003454	6528.3908729054
4	89928	29079.460341756273	6529.052015616
4	89933	29079.982502030115	6522.3619683465
4	89940	29083.243534826377	6517.2482193654
4	89945	29086.02792534314	6514.0344607372
4	89952	29091.245585259371	6514.2400621174
4	89963	29097.057536894873	6506.075049658
4	90003	29111.033762619266	6497.9815254317
4	90033	29116.960295351842	6496.8324923899
4	90038	29118.180275729088	6496.8260984831
4	90046	29122.653306125873	6499.8704128156
4	90053	29124.218644891358	6493.707233368
4	90066	29128.937311666642	6486.3975718153
4	90154	29146.15472480984	6496.1210398608
4	90159	29146.832869144724	6495.6756687818
4	90164	29147.27006136222	6491.0771185593
4	90169	29150.291066499169	6480.3684463027
4	90199	29169.686642450586	6497.8994033
4	90268	29202.060103325452	6521.5675435592
4	90291	29208.789919151107	6521.4252399527
4	90301	29212.483221551613	6505.6319587088
4	90314	29215.565134410785	6504.8754320468
4	90319	29215.570186713673	6504.6641157796
4	90326	29215.661900736006	6502.6648082134
4	90346	29220.301039532758	6502.8098410405
4	90355	29223.77531790847	6501.219500158
4	90366	29226.738647195407	6491.7774736973
4	90384	29235.124879214755	6498.9570503099
4	90416	29247.694430757342	6511.2120764475
4	90424	29249.067347311225	6500.8988039562
4	90433	29251.825341122185	6489.8907252046
4	90462	29257.832956201567	6493.997865974
4	90489	29265.094638596466	6496.7927676585
4	90494	29265.859851335735	6495.253777598
4	90514	29284.154603761147	6509.2983038161
4	90579	29308.494281267701	6520.5653662659
4	90600	29313.343501258773	6523.6915822652
4	90607	29315.65139619823	6520.8710352241
4	90620	29322.53651391761	6517.1624635162
4	90672	29336.250895812123	6524.3326432679
4	90687	29341.434374977038	6521.142372398
4	90718	29349.919817816137	6523.0083542522
4	90735	29355.025072217055	6526.1261580489
4	90746	29356.896796328434	6515.5228024453
4	90753	29359.669219655248	6507.2008615714
4	90765	29361.015175330937	6504.0470564713
4	90772	29365.271539529093	6507.92151159
4	90782	29369.751210773891	6511.7340392536
4	90800	29374.133067274509	6510.7995647939
4	90813	29376.469316997029	6509.9734684016
4	90820	29381.446331226517	6514.1745162064
4	90841	29383.996398997711	6513.6328987925
4	90846	29385.86701601835	6503.5471473713
4	90856	29390.68802894932	6506.6459651327
4	90872	29396.139256819688	6508.9100176646
4	90878	29396.901575529983	6508.5170686482
4	90884	29398.065189445128	6508.3970361226
4	90891	29400.48497543862	6508.6355713604
4	90902	29404.162237131496	6491.1216026342
4	90966	29421.876955087628	6508.4134988061
4	90974	29425.148534875583	6510.1213797647
4	90989	29437.384470952883	6511.8969611885
4	90998	29441.56591560068	6511.6662807502
4	91024	29448.689092129359	6517.5086212926
4	91038	29450.912135877124	6510.1018328277
4	91157	29481.298933922801	6534.2064442389
4	91170	29486.710496060408	6527.4769326789
4	91200	29490.789124969336	6526.2560100688
4	91206	29491.916945312298	6527.1393905031
4	91215	29494.520408002435	6510.2315526238
4	91225	29495.444399860497	6499.191507227
4	91243	29500.294765908766	6502.3979169718
4	91336	29530.960307926212	6505.0805808262
4	91397	29551.220772023772	6508.6132832979
4	91402	29551.337751371681	6508.1851465866
4	91409	29558.769023854576	6506.5684150567
4	91473	29574.074711291846	6521.8176935507
4	91478	29576.186532832127	6501.1159936464
4	91492	29581.338864306193	6505.8741579943
4	91585	29621.105526634581	6540.5910850878
4	91596	29624.547275049782	6534.5038186232
4	91611	29625.340640069439	6535.2355115734
4	91618	29629.332551902052	6531.1917899955
4	91623	29631.293788108387	6525.1295689273
4	91636	29637.113079992203	6527.6493328761
4	91677	29649.500640230937	6526.7140706073
4	91682	29649.709262625764	6525.2932960375
4	91687	29649.956615234109	6523.5596332561
4	91695	29650.720477346277	6524.0514658794
4	91715	29655.123344847825	6527.267786282
4	91725	29662.277352138791	6515.7592791067
4	91798	29681.383559556539	6531.4648533979
4	91803	29682.925352241286	6527.3974424271
4	91809	29684.827877516595	6523.4178275479
4	91831	29694.356901392173	6531.6833844903
4	91859	29699.485394113536	6526.1988170808
4	91872	29705.966673746539	6516.0106225664
4	91877	29706.301647135242	6515.0998875104
4	91882	29706.984032070622	6515.694313119
4	91888	29709.712111093203	6517.9547681731
4	91895	29712.752168685673	6520.3382886539
4	91909	29716.980169373146	6518.2564966195
4	91916	29717.798612144982	6515.5908782803
4	91935	29726.675449987951	6519.4744133556
4	91987	29739.894344918337	6526.9845726143
4	92001	29741.367274464625	6526.6850388478
4	92006	29741.553391251601	6515.5860223869
4	92011	29741.889037791416	6491.2144650579
4	92016	29743.055012046793	6488.6418414386
4	92021	29745.831236385664	6477.4966046664
4	92028	29749.22515446419	6478.9475748417
4	92035	29750.034669504576	6478.2419197563
4	92045	29751.152632247299	6472.7137362137
4	92052	29752.714256210651	6466.6296269972
4	92078	29765.253307874291	6478.6570881402
4	92095	29769.957248996855	6481.5926104799
4	92106	29772.579221743691	6481.7157338959
4	92152	29790.131276977692	6497.0695077241
4	92170	29794.826646001148	6490.2282079256
4	92179	29797.825801886363	6487.4543599052
4	92188	29801.731865340335	6483.4713630013
4	92217	29808.067957429769	6487.043314079
4	92224	29808.331648446413	6480.5081751379
4	92239	29812.525695596235	6476.4474793126
4	92281	29822.699643205968	6483.8094332087
4	92412	29860.222916260531	6520.7123296501
4	92423	29868.014857534309	6523.7307421345
4	92434	29869.671736609355	6522.1752259904
4	92439	29869.91274608384	6492.9754650667
4	92444	29872.686943655879	6487.4651531399
4	92450	29872.966048063519	6486.5884168871
4	92455	29876.132879991061	6474.4235409004
4	92466	29881.693706541199	6479.4625545635
4	92498	29890.701975673494	6487.7894027012
4	92616	29926.087621801865	6507.0952604053
4	92631	29932.676067775186	6511.7804106375
4	92644	29935.66650968439	6498.4824882552
4	92649	29935.92404416529	6496.2873015642
4	92654	29938.136994447343	6485.0994591435
4	92659	29939.13611669455	6478.80742801
4	92672	29946.726563109421	6484.6532127126
4	92693	29956.066892607798	6493.350341899
4	92700	29957.550589764088	6494.0103849882
4	92741	29969.997089732458	6504.2074407079
4	92752	29973.832146460951	6504.9097551764
4	92808	29988.359526680336	6515.5737997846
4	92819	29992.046065812379	6506.4120968665

