version 2
run Third-n3-9-20191016-14:53:51-3568
attr configname Third-n3
attr datetime 20191016-14:53:51
attr experiment Third-n3
attr inifile omnetpp.ini
attr iterationvars ""
attr iterationvarsf ""
attr measurement ""
attr network org.omnetpp.queueing.Pizza
attr processid 3568
attr repetition 9
attr replication ""
attr resultdir results
attr runnumber 9
attr seedset 9
param **.PS.maxInventoriedPS 3
param **.U1.interArrivalTime exponential(4s)
param **.U2.interArrivalTime exponential(6s)
param **.PS.serviceTimeForInventoryU1 exponential(1.4s)
param **.PS.serviceTimeForInventoryU2 exponential(1.4s)
param **.PS.serviceTimeDirectU1 exponential(1.8s)
param **.PS.serviceTimeDirectU2 exponential(1.8s)
param **.PS.probabilityProducing 0.8
param **.CS.serviceTimeU1 exponential(2.3s)
param **.CS.serviceTimeU2 exponential(2.3s)

vector 0 Pizza.EntryQueueU1 queueLength:vector ETV
attr interpolationmode sample-hold
attr title "queue length, vector"
vector 1 Pizza.CS queueLength:vector ETV
attr interpolationmode sample-hold
attr title "queue length, vector"
vector 2 Pizza.EntryQueueU2 queueLength:vector ETV
attr interpolationmode sample-hold
attr title "queue length, vector"
vector 3 Pizza.sink lifeTime:vector ETV
attr interpolationmode none
attr title "lifetime of arrived jobs, vector"
attr unit s
vector 4 Pizza.sink lifeTimeU2:vector ETV
attr interpolationmode none
attr title "lifetime of arrived jobs, vector"
attr unit s
0	0	0	0
0	18	2.829327048168	1
0	19	2.921640467866	0
0	31	4.845295499398	1
0	34	5.364494512469	0
0	73	34.163922375178	1
0	77	34.605226818863	2
0	81	34.935780437394	3
0	85	37.636849726706	4
0	87	38.577040374716	5
0	88	41.70313968115	4
0	96	46.465331887411	5
0	98	47.28626001997	6
0	99	49.834015460481	5
0	106	51.716435569423	6
0	108	51.907738231235	7
0	110	54.587493039343	6
0	115	54.988697603844	5
0	121	56.565895288789	4
0	128	57.587605850565	5
0	129	61.837202165632	4
0	134	64.513730711867	3
0	141	66.287755080298	2
0	146	68.755933938676	1
0	154	70.259238659468	0
0	163	72.987466812429	1
0	165	73.536964834979	2
0	168	73.899085981569	1
0	174	74.134394178796	2
0	178	75.423100428668	1
0	183	75.504523786878	0
0	198	82.298940761105	1
0	205	86.401778881558	0
0	214	88.822445785126	1
0	215	89.409543566945	0
0	226	89.786942551731	1
0	230	92.499404304457	0
0	236	92.705747733796	1
0	238	92.738461317617	2
0	239	94.06773766224	1
0	247	94.987265510146	2
0	249	95.567034481798	3
0	251	96.033921711755	2
0	258	97.008794827694	3
0	259	97.905381283913	2
0	267	99.837163445226	1
0	274	99.930166138637	0
0	282	100.826141065108	1
0	284	100.980976404648	2
0	286	101.102294253822	3
0	290	102.699157123637	2
0	296	103.875746412723	3
0	297	104.763114607343	2
0	303	108.599983870297	1
0	311	109.55161216306	2
0	313	110.029193524354	3
0	314	110.275975347158	2
0	320	110.314937882922	3
0	323	113.299812086566	2
0	327	113.474228753922	3
0	330	114.710600184766	2
0	339	119.189104357028	3
0	341	122.335549381788	4
0	342	123.552227061619	3
0	348	125.274026467886	4
0	352	126.423712563459	5
0	355	128.478794017951	4
0	360	128.653619903102	3
0	366	129.372002701749	4
0	370	132.111717623677	3
0	376	135.464676074832	2
0	382	135.895376853273	3
0	383	137.435288164321	2
0	388	138.910989354767	1
0	392	139.180986909003	2
0	397	140.000306429906	1
0	410	147.336380973919	0
0	431	151.338265975305	1
0	433	152.689327084668	0
0	447	154.4087855679	1
0	451	156.888450062657	2
0	452	157.562519022968	1
0	458	159.191875913758	0
0	468	161.251613590703	1
0	471	162.358658877574	0
0	478	163.553947166673	1
0	483	166.77587127802	2
0	485	166.879477964394	3
0	486	169.367357627008	2
0	492	170.857709560346	1
0	498	171.870945178471	0
0	515	179.398023325246	1
0	517	179.48285818769	2
0	521	180.070705204563	3
0	523	180.843413438221	2
0	528	182.196939819285	1
0	533	182.64769138669	0
0	541	185.435420706628	1
0	543	186.169113944311	0
0	549	186.33318661345	1
0	556	188.66428647682	2
0	558	190.325478180673	3
0	559	192.630192933956	2
0	565	194.831466673326	1
0	571	195.069859024813	2
0	573	196.75790936403	3
0	574	197.972717025404	2
0	580	198.402731370918	1
0	586	201.773295802642	2
0	588	201.905145001784	3
0	590	203.383733132108	4
0	594	204.20109084963	5
0	597	207.912050781602	4
0	603	208.66437475469	3
0	610	209.948951011387	4
0	612	209.950317657093	5
0	614	211.31519949344	6
0	616	211.650629064086	7
0	617	213.30554988763	6
0	624	213.564859768945	7
0	625	214.029706061615	6
0	630	214.462917060435	5
0	637	215.684407519617	4
0	641	216.232841707385	5
0	644	217.782367508808	4
0	649	219.233647143588	3
0	656	221.828499769963	2
0	660	221.951017743548	3
0	664	222.875615088783	4
0	665	223.217071290338	3
0	671	224.930095139741	4
0	673	225.531493431827	5
0	676	226.016347215118	6
0	679	226.539163649807	7
0	681	226.957472274259	8
0	682	227.643254009363	7
0	689	227.923655055524	6
0	700	233.830182732989	5
0	708	234.376011955414	6
0	710	238.953103518109	7
0	712	239.841638515917	8
0	717	242.10477391389	7
0	723	244.515048860993	6
0	729	245.824672434738	7
0	731	246.049636404476	8
0	734	247.671278041227	9
0	737	248.794273479771	8
0	742	250.625761177457	7
0	748	254.557973037239	6
0	759	256.508230386746	5
0	764	256.809765484734	4
0	771	256.833357238431	3
0	778	257.840082112891	4
0	782	258.2254511294	5
0	783	262.585920032125	4
0	793	266.020504548387	3
0	798	268.593465326314	2
0	803	270.43276293277	1
0	808	271.300825987741	0
0	828	274.904597716217	1
0	832	278.989201977267	0
0	868	290.293751846794	1
0	874	292.548501469573	2
0	875	292.75449774495	1
0	881	295.098495405482	0
0	903	306.763602278955	1
0	904	306.915174924474	0
0	920	309.26184048276	1
0	921	309.35732684539	0
0	938	316.238057432017	1
0	941	317.752746092087	2
0	943	319.508871312871	1
0	948	319.639984253977	0
0	955	320.166371501029	1
0	959	323.633577911172	0
0	965	323.666515628176	1
0	967	323.721821801039	2
0	975	329.434297405925	1
0	981	329.914984685761	2
0	986	337.278523505205	3
0	988	337.680800504206	4
0	991	339.721703788518	3
0	997	340.096669692493	4
0	998	340.289168902737	3
0	1006	342.020179766938	2
0	1011	342.303952554779	1
0	1018	343.465730807696	0
0	1024	344.586278391865	1
0	1026	344.866531235523	2
0	1027	346.435207184892	1
0	1033	346.686424147133	0
0	1058	354.505776554436	1
0	1061	356.297229474355	2
0	1063	357.301063260458	1
0	1069	357.424056001202	2
0	1071	357.614029157921	3
0	1073	358.475170062173	2
0	1081	360.847814268757	3
0	1082	361.106256434292	2
0	1090	363.838155463713	1
0	1096	365.731776095933	0
0	1129	379.186243833922	1
0	1132	381.579826134822	0
0	1143	382.149760447788	1
0	1146	382.810020860903	0
0	1158	385.913478514027	1
0	1160	387.193247019462	2
0	1162	388.039451203678	3
0	1167	392.855093215516	4
0	1168	392.883149628288	3
0	1173	393.464361038362	2
0	1180	394.734592721491	1
0	1190	400.038040153445	0
0	1197	401.082441845347	1
0	1198	404.999419992639	0
0	1210	411.23985127476	1
0	1212	414.206167024405	2
0	1214	415.104220384099	3
0	1216	415.548044539702	4
0	1217	416.905269307515	3
0	1227	423.738701853002	2
0	1232	423.748207960204	1
0	1238	425.971554303875	0
0	1244	426.341414566376	1
0	1248	429.06200211744	0
0	1272	437.658009688883	1
0	1274	438.175653162363	2
0	1277	441.140690514407	1
0	1283	442.422708366444	0
0	1294	444.935368586502	1
0	1298	449.837045839926	0
0	1315	455.301635631449	1
0	1316	460.39547886619	0
0	1326	465.0066119834	1
0	1329	466.123696737642	0
0	1346	472.322622006067	1
0	1347	473.769557444677	0
0	1354	474.421866011542	1
0	1356	475.701888132071	2
0	1357	477.083848959702	1
0	1364	479.05525446754	2
0	1365	479.211349649482	1
0	1371	481.511667495827	0
0	1378	488.172559329061	1
0	1382	489.3163104782	2
0	1383	500.712010927636	1
0	1388	501.710171177461	0
0	1404	507.742306919776	1
0	1408	509.666033625819	2
0	1414	510.698761509509	3
0	1418	512.983226736211	4
0	1419	513.647951834391	3
0	1424	515.037311644932	2
0	1430	516.091049656478	1
0	1441	516.791280381638	0
0	1453	520.481431298205	1
0	1457	522.196546093689	2
0	1461	522.372687940561	3
0	1462	522.773637273459	2
0	1467	526.277212891715	1
0	1476	530.170221258252	2
0	1478	534.184886747369	1
0	1483	534.372456702723	0
0	1490	534.958363234344	1
0	1494	536.788503818041	2
0	1497	538.260418622503	1
0	1502	538.885242798345	0
0	1525	545.999959535367	1
0	1530	549.081218731017	0
0	1537	551.516207530099	1
0	1538	551.541071330591	0
0	1551	555.909961109688	1
0	1552	556.401054359338	0
0	1570	564.475191173131	1
0	1573	567.410308831117	0
0	1592	573.579926775129	1
0	1594	574.694944588029	2
0	1596	575.060199118267	3
0	1597	577.726282437938	2
0	1604	580.772881486625	3
0	1605	581.188295911278	2
0	1616	583.505158806986	1
0	1621	585.013586432204	0
0	1639	587.613453126058	1
0	1641	587.64501361653	2
0	1642	588.096661138886	1
0	1648	588.874648451281	2
0	1650	589.161331546881	3
0	1651	589.821531687814	2
0	1659	591.276450828768	1
0	1667	593.218272960382	0
0	1679	597.948747962548	1
0	1686	600.94942113821	0
0	1717	614.852492639796	1
0	1719	614.936449218575	2
0	1721	615.724600406442	1
0	1726	616.425342593415	0
0	1772	635.212811522854	1
0	1773	636.026314146841	0
0	1788	639.448539083277	1
0	1793	642.284497182746	0
0	1799	642.798763265871	1
0	1802	646.708920550194	0
0	1814	647.389267617624	1
0	1816	648.657041974437	0
0	1827	649.536694466717	1
0	1829	655.699837547026	0
0	1839	658.383956207227	1
0	1841	658.619451905086	2
0	1843	660.658694742168	3
0	1847	662.041033843072	4
0	1849	662.320355198804	5
0	1851	664.533587748592	6
0	1852	666.161572106331	5
0	1857	666.31408216575	4
0	1865	667.36284070794	5
0	1867	667.736625133075	4
0	1879	672.857499995022	5
0	1880	681.246194005441	4
0	1886	681.891560814091	5
0	1888	682.835758831248	4
0	1893	683.748486605304	3
0	1899	686.746126352605	2
0	1906	688.114964463331	1
0	1912	688.469439532087	2
0	1916	691.370754012158	3
0	1919	692.381453021387	2
0	1929	693.098266058683	1
0	1935	694.246449738335	2
0	1937	694.29475217939	3
0	1938	696.287552726523	2
0	1945	698.683473255899	3
0	1947	699.539613123873	4
0	1950	702.259951564624	5
0	1953	702.425881890974	4
0	1958	703.300505402774	3
0	1965	709.855960851591	2
0	1972	713.624077168849	3
0	1976	715.833433234552	4
0	1977	718.713585579007	3
0	1983	718.908408431945	4
0	1985	718.954660098057	5
0	1986	719.234620350569	4
0	1991	719.988526422523	3
0	1999	721.048783266168	4
0	2001	722.550818241274	3
0	2010	725.149595061472	2
0	2017	729.772300555591	1
0	2022	730.167044617663	0
0	2028	732.849794212533	1
0	2030	733.600463118836	2
0	2032	735.649418631526	3
0	2033	735.935549393951	2
0	2040	736.166068871361	1
0	2046	736.531785891483	2
0	2047	736.57761603568	1
0	2053	738.245872535563	2
0	2055	740.581179954695	3
0	2056	740.991574930809	2
0	2064	743.366138284627	3
0	2068	744.682299253317	2
0	2074	745.033387655933	3
0	2080	746.46909695613	2
0	2092	749.874260896632	1
0	2097	751.841639958835	0
0	2103	751.859512096537	1
0	2104	753.290541425342	0
0	2111	754.353521433637	1
0	2115	755.387671378632	2
0	2116	755.414398930794	1
0	2121	756.277788372018	0
0	2147	760.2619737643	1
0	2151	761.987881269225	2
0	2152	762.330252233971	1
0	2159	763.881122411789	2
0	2161	764.403357890785	3
0	2166	769.058916415752	2
0	2174	769.964271453391	3
0	2175	770.948782988935	2
0	2184	774.330202486289	3
0	2186	776.747200808026	2
0	2194	777.727232317329	1
0	2200	778.600296438621	2
0	2204	780.108342848154	1
0	2209	780.625545240215	0
0	2220	783.885782672215	1
0	2222	784.460911552357	2
0	2223	785.654957747222	1
0	2229	786.494228711862	0
0	2235	787.088492257366	1
0	2236	787.43388777559	0
0	2304	810.763898959619	1
0	2307	811.88490050719	0
0	2332	819.032794226079	1
0	2336	820.411187418071	0
0	2348	823.794869643765	1
0	2349	824.826937165819	0
0	2361	827.267515425295	1
0	2364	828.487679114731	0
0	2396	835.809823959882	1
0	2399	837.062772342436	0
0	2416	844.887327085467	1
0	2417	846.236277173235	0
0	2440	853.027175963336	1
0	2441	853.764800520444	0
0	2447	855.307856792014	1
0	2450	856.055260760376	2
0	2453	856.976708185731	1
0	2459	858.184754489907	2
0	2461	858.668902914769	3
0	2464	859.906585343849	4
0	2468	861.709265050263	3
0	2474	862.089267192408	4
0	2475	862.248098051138	3
0	2482	865.41155902307	2
0	2488	865.741377035012	3
0	2490	866.598357816773	2
0	2497	867.202886288813	1
0	2502	871.685993012577	0
0	2515	873.269299475653	1
0	2519	873.883978734739	2
0	2527	879.405486808356	3
0	2529	881.588843219432	4
0	2535	888.621840923192	5
0	2536	889.574593185534	4
0	2542	890.597207158091	5
0	2543	890.724959952034	4
0	2550	895.995560564984	3
0	2555	896.127977832192	2
0	2561	896.217523456582	3
0	2565	898.141723407588	4
0	2566	898.440864140557	3
0	2571	898.662216988648	2
0	2578	900.672151871147	3
0	2580	901.105880301789	4
0	2582	901.269472351911	5
0	2583	901.363812117923	4
0	2591	902.734102152471	3
0	2596	903.30105866578	2
0	2601	903.627510601404	1
0	2608	906.364531467253	0
0	2619	906.999224152601	1
0	2623	911.356160401518	0
0	2630	912.959161729361	1
0	2632	913.784214100551	2
0	2633	914.01733296134	1
0	2637	917.689975750279	2
0	2642	923.142795707371	3
0	2643	923.596422500781	2
0	2650	926.027298848603	3
0	2651	927.310813931572	2
0	2657	930.091022304842	1
0	2664	932.487802455024	2
0	2667	936.005786458461	1
0	2672	937.791462954274	0
0	2683	938.51455238623	1
0	2688	940.295150864533	2
0	2689	940.319353539496	1
0	2694	941.140592261811	0
0	2705	942.487953983679	1
0	2706	943.085999668009	0
0	2710	945.223668385571	1
0	2715	946.142566940373	2
0	2719	947.722453897794	3
0	2722	949.044467285831	2
0	2728	949.980448070496	3
0	2729	950.152783727263	2
0	2735	950.838743546026	1
0	2747	953.105410991575	0
0	2753	954.160850301936	1
0	2758	959.002340723392	0
0	2770	959.891970528332	1
0	2772	959.965290982412	2
0	2774	964.657373755316	3
0	2775	969.008069900015	2
0	2781	969.627849264674	3
0	2783	977.746130008854	2
0	2788	978.385411899805	1
0	2795	980.508316405693	0
0	2807	983.316362965062	1
0	2810	984.373192306415	0
0	2830	989.068135664732	1
0	2832	989.650831924904	2
0	2833	994.240375586596	1
0	2844	996.851686145375	2
0	2845	997.710468022451	1
0	2851	998.347723423843	0
0	2865	999.26447983388	1
0	2871	1002.470733516483	2
0	2873	1002.550272715817	3
0	2875	1002.970853785167	4
0	2876	1003.803602781584	3
0	2884	1005.690092850991	4
0	2885	1006.866392675323	3
0	2891	1008.660019609955	2
0	2896	1009.630313732297	1
0	2901	1010.231595910576	0
0	2915	1013.941871404717	1
0	2916	1014.226283806197	0
0	2937	1022.034841065249	1
0	2938	1026.260068070633	0
0	2948	1027.754978389475	1
0	2953	1034.294110071763	0
0	2960	1035.550918865716	1
0	2962	1037.596527445521	2
0	2965	1039.065275521211	1
0	2972	1040.172345024068	2
0	2978	1044.549386155441	3
0	2979	1048.542369028774	2
0	2992	1055.659544859206	3
0	2994	1059.09264082136	4
0	2996	1059.654855484864	5
0	2999	1060.409107881445	4
0	3005	1061.552154947359	3
0	3012	1063.714338978122	2
0	3017	1064.734799474159	1
0	3023	1065.743426118491	2
0	3024	1066.84470395699	1
0	3030	1067.475017198081	2
0	3035	1072.571834913925	3
0	3038	1073.59638056925	2
0	3046	1074.185475751939	3
0	3048	1075.885107576267	2
0	3057	1076.728787602931	3
0	3059	1076.870330049036	4
0	3060	1077.771493951307	3
0	3066	1078.699612598975	2
0	3072	1083.528382208742	1
0	3077	1083.60286526452	0
0	3092	1085.749328833166	1
0	3093	1086.422784271011	0
0	3115	1090.827764501736	1
0	3117	1091.710629186813	2
0	3119	1092.140838738859	3
0	3121	1092.231640028283	4
0	3125	1096.698135040535	3
0	3130	1096.977404405205	2
0	3135	1097.212105658145	1
0	3141	1097.486504460003	2
0	3142	1097.826364355966	1
0	3146	1100.006973431966	2
0	3149	1101.332441303008	1
0	3158	1103.496919961653	0
0	3172	1105.525273354517	1
0	3177	1111.131186460021	0
0	3185	1112.241745549306	1
0	3186	1112.256576217809	0
0	3193	1113.944052909066	1
0	3197	1116.436808652664	0
0	3209	1118.281681769123	1
0	3210	1118.672033463073	0
0	3216	1118.760909488389	1
0	3224	1125.432139524487	2
0	3226	1125.799873979527	3
0	3227	1126.350038809938	2
0	3233	1126.9403307468	3
0	3234	1128.000454515533	2
0	3239	1128.868965072899	1
0	3245	1130.189209250075	2
0	3246	1130.962373086406	1
0	3252	1131.707300588827	2
0	3253	1132.331106394906	1
0	3258	1133.886218584288	0
0	3264	1135.983619201984	1
0	3268	1137.097475801972	2
0	3269	1137.42381722541	1
0	3274	1138.795960354982	0
0	3285	1139.655705099043	1
0	3288	1140.662444399542	0
0	3327	1148.486899010968	1
0	3329	1151.024736383703	2
0	3333	1153.091639104175	1
0	3338	1153.432470294907	0
0	3360	1159.448452296943	1
0	3363	1162.545843234328	0
0	3370	1163.396382343073	1
0	3371	1164.166789596536	0
0	3382	1166.729885256922	1
0	3385	1169.149852540025	2
0	3388	1170.501833935824	1
0	3394	1171.396151457355	2
0	3396	1171.933240004416	1
0	3403	1173.328646096581	2
0	3405	1175.188518972626	3
0	3407	1177.548280105037	2
0	3412	1178.752888074199	1
0	3417	1178.919706091764	0
0	3433	1182.717558619295	1
0	3441	1184.977220593645	2
0	3443	1186.556495230306	1
0	3448	1186.748417631118	0
0	3458	1189.006599888494	1
0	3463	1192.650127061063	2
0	3464	1194.424814741223	1
0	3469	1194.745175512008	0
0	3501	1206.692299936269	1
0	3502	1207.480172376495	0
0	3509	1208.318075457519	1
0	3510	1210.463952159781	0
0	3516	1211.054821436985	1
0	3519	1211.65862711963	2
0	3520	1212.794978782736	1
0	3529	1215.294183262366	2
0	3531	1216.249363697004	1
0	3536	1216.322830087914	0
0	3594	1236.813537648349	1
0	3596	1238.163826536168	2
0	3598	1238.578517689547	3
0	3599	1239.884431422046	2
0	3606	1241.636301188265	1
0	3612	1243.028783550823	0
0	3625	1246.752887316967	1
0	3627	1247.168204712558	2
0	3628	1247.995196692491	1
0	3634	1250.223559949515	0
0	3658	1259.42609356824	1
0	3660	1260.501336893742	2
0	3665	1263.456769054026	1
0	3671	1263.464106955696	2
0	3675	1264.289405451537	3
0	3677	1265.186101800735	4
0	3683	1268.35055517963	3
0	3694	1270.347561041994	4
0	3697	1270.915215034361	5
0	3698	1271.732883443207	4
0	3703	1272.454254294418	3
0	3708	1272.774996593671	2
0	3717	1275.961650231436	1
0	3722	1277.678538192614	0
0	3735	1281.828618227645	1
0	3736	1282.916660967971	0
0	3745	1288.56893353061	1
0	3746	1288.666297021746	0
0	3766	1293.09540914548	1
0	3768	1293.135568726388	2
0	3770	1293.950512432794	3
0	3772	1294.017634591539	4
0	3779	1298.532075489738	3
0	3787	1300.644975315552	2
0	3793	1301.604838896353	1
0	3799	1302.181050296038	2
0	3801	1302.511253301803	1
0	3806	1303.85786308815	0
0	3812	1303.891772935454	1
0	3813	1304.050843281724	0
0	3817	1304.157451754924	1
0	3822	1310.594922239875	2
0	3825	1311.290015641802	3
0	3826	1311.620722366877	2
0	3834	1312.366054925066	3
0	3835	1312.919644151026	2
0	3844	1316.978179234182	3
0	3846	1318.237492269558	4
0	3847	1320.823370469689	3
0	3854	1321.027170001469	4
0	3855	1321.037070794818	3
0	3860	1321.319749590351	2
0	3868	1322.938740078124	3
0	3870	1324.385676807076	4
0	3872	1329.029356951006	5
0	3874	1331.722509529153	6
0	3877	1336.602449299836	5
0	3882	1336.97337973049	4
0	3891	1345.019477803307	5
0	3893	1348.737975152154	4
0	3898	1350.043636999862	3
0	3903	1350.508889798189	2
0	3909	1351.227777492442	3
0	3912	1352.337121053243	2
0	3919	1352.955786189682	1
0	3925	1353.964165571323	0
0	3943	1355.735658379158	1
0	3951	1359.301638267075	0
0	4009	1376.321083801674	1
0	4010	1378.492609831772	0
0	4025	1381.523140796676	1
0	4029	1382.585564771095	2
0	4030	1383.483982549866	1
0	4035	1384.798753864243	0
0	4041	1385.32855022705	1
0	4043	1385.658129212433	0
0	4080	1400.993635719536	1
0	4082	1401.997427978218	2
0	4084	1402.446555477635	3
0	4092	1409.22073154464	2
0	4097	1410.335895215752	1
0	4106	1411.668621518948	0
0	4112	1411.941541329297	1
0	4114	1412.020510229075	2
0	4116	1412.393917079264	1
0	4123	1412.770424268256	2
0	4126	1415.880604931606	1
0	4132	1417.20660985645	0
0	4139	1419.204719011941	1
0	4142	1420.989965448802	0
0	4169	1429.806720187264	1
0	4175	1436.293788674698	2
0	4177	1437.584317605254	3
0	4179	1440.880470513927	4
0	4183	1443.883455676387	5
0	4184	1445.491028124405	4
0	4189	1445.812124336439	3
0	4198	1447.396773818452	2
0	4203	1447.733424484954	1
0	4214	1449.490942947557	2
0	4215	1451.441565257214	1
0	4224	1455.721472973728	0
0	4231	1459.654358487895	1
0	4233	1461.221130071804	2
0	4235	1461.372002077023	3
0	4236	1461.730198133934	2
0	4242	1462.391107891166	1
0	4247	1462.604665593647	0
0	4258	1464.53291215418	1
0	4265	1467.886428092635	0
0	4290	1482.334121227254	1
0	4292	1483.274306828312	2
0	4295	1484.646891946147	1
0	4300	1485.042484189126	0
0	4321	1492.119582500494	1
0	4323	1492.214801665147	2
0	4324	1493.549485176202	1
0	4330	1494.632036628203	0
0	4339	1496.346807244996	1
0	4342	1498.008015120728	0
0	4374	1510.659704054268	1
0	4375	1511.309739394124	0
0	4389	1516.906786947621	1
0	4392	1517.585744363894	0
0	4411	1525.526899325035	1
0	4414	1531.799445172081	0
0	4426	1535.734310004992	1
0	4427	1536.337910830227	0
0	4437	1538.014037043291	1
0	4438	1541.432862116182	0
0	4444	1541.450883853823	1
0	4447	1544.191491468567	2
0	4448	1545.583353044798	1
0	4453	1545.677490631905	0
0	4459	1547.367439356156	1
0	4461	1548.592134280669	0
0	4515	1583.777485263798	1
0	4517	1584.826761250488	2
0	4519	1585.260749234896	3
0	4522	1586.033442971411	2
0	4528	1586.628439847412	1
0	4538	1594.435413503081	2
0	4540	1595.070337916822	3
0	4541	1596.233410911923	2
0	4548	1599.2702878618	3
0	4551	1604.189994120961	4
0	4552	1606.379547442907	3
0	4559	1608.256674441157	4
0	4561	1609.459373141045	5
0	4562	1610.981180700017	4
0	4568	1611.818223656128	5
0	4577	1614.716355722755	4
0	4583	1616.552402483957	5
0	4585	1618.425054253424	4
0	4596	1621.832232959562	5
0	4597	1622.798822233494	4
0	4602	1623.337618622837	3
0	4609	1625.389171364822	4
0	4611	1627.911212939369	3
0	4616	1628.040614760131	2
0	4621	1628.052558466044	1
0	4626	1629.913798002446	0
0	4636	1632.723673595016	1
0	4640	1634.842788092859	2
0	4645	1636.330804623677	1
0	4650	1636.402240416919	0
0	4656	1637.181434238851	1
0	4658	1638.595410884525	2
0	4662	1641.683237839649	3
0	4663	1642.645212520463	2
0	4668	1644.66448453737	1
0	4677	1645.629497096549	0
0	4685	1646.491027780598	1
0	4687	1648.537329618213	0
0	4700	1651.641881415213	1
0	4701	1651.719406340763	0
0	4730	1663.323883891752	1
0	4732	1663.559893866089	2
0	4733	1669.415783890374	1
0	4739	1670.929670134432	0
0	4754	1673.142973956942	1
0	4760	1675.079703454652	2
0	4767	1679.952069287604	1
0	4773	1680.480883481006	2
0	4777	1681.053014671307	1
0	4786	1683.586801068192	0
0	4793	1683.909427498183	1
0	4795	1684.264651401482	0
0	4801	1685.32582968082	1
0	4804	1687.362118806889	0
0	4812	1688.151539305442	1
0	4815	1689.896357207724	2
0	4816	1689.962234375932	1
0	4822	1692.502680516653	0
0	4828	1693.092909262979	1
0	4829	1693.293687103151	0
0	4833	1695.580430381622	1
0	4837	1696.482676573046	0
0	4854	1698.587368705743	1
0	4855	1698.829481295582	0
0	4869	1701.38734076057	1
0	4870	1702.138249439126	0
0	4884	1711.025400167892	1
0	4886	1711.443967409481	2
0	4887	1712.69176478786	1
0	4892	1712.772427388932	0
0	4906	1715.011918341361	1
0	4910	1716.167263984231	0
0	4917	1716.22028058289	1
0	4923	1718.568543077467	0
0	4957	1726.726435078265	1
0	4959	1727.632685762339	2
0	4960	1728.537269896905	1
0	4968	1729.260880331635	0
0	4982	1729.760474199039	1
0	4985	1731.364775037213	0
0	5008	1741.613482834059	1
0	5010	1741.666382785409	2
0	5013	1743.268839246434	1
0	5020	1746.713510377349	2
0	5021	1747.185624195721	1
0	5029	1747.482296268877	2
0	5031	1749.335120171552	1
0	5037	1749.89246489248	0
0	5050	1752.193355956644	1
0	5053	1757.790908400191	0
0	5068	1761.182171518793	1
0	5072	1763.190324584945	2
0	5073	1766.346114667664	1
0	5083	1768.444953362769	0
0	5092	1768.769230621741	1
0	5094	1769.010618882464	2
0	5097	1777.371424702537	1
0	5103	1777.691306994864	0
0	5118	1782.030786028057	1
0	5122	1785.068494461803	2
0	5125	1787.554429544762	1
0	5130	1788.859132961096	0
0	5139	1790.775507013553	1
0	5141	1791.193221997655	2
0	5145	1791.352060834034	3
0	5149	1793.627102442493	2
0	5154	1795.701442036137	1
0	5162	1796.510176193162	2
0	5165	1798.343876647194	3
0	5171	1800.980356486672	2
0	5176	1801.998418962879	1
0	5181	1804.007765778696	0
0	5189	1805.604645976305	1
0	5190	1806.998474814122	0
0	5201	1810.254223067427	1
0	5202	1810.778187582237	0
0	5214	1812.126314848579	1
0	5221	1815.840631235536	2
0	5223	1816.008426653842	3
0	5224	1817.260249577217	2
0	5231	1818.092718714757	3
0	5235	1820.267075819963	4
0	5236	1820.932567442783	3
0	5242	1823.432700819704	4
0	5245	1825.119919253571	5
0	5246	1828.304142426697	4
0	5251	1828.70142258553	3
0	5260	1831.599501963303	4
0	5262	1832.734249646395	3
0	5268	1835.577408044846	4
0	5271	1837.288015369099	3
0	5279	1839.153590296241	2
0	5285	1839.929117198299	3
0	5286	1840.202423343201	2
0	5292	1841.388980253621	1
0	5297	1841.494025657018	0
0	5317	1847.573631305087	1
0	5319	1848.211831996691	2
0	5324	1849.436961508715	3
0	5328	1849.743446835479	2
0	5334	1850.021710325478	3
0	5337	1851.562351723669	2
0	5343	1852.556847898827	3
0	5344	1852.61946634139	2
0	5353	1854.324957504195	3
0	5356	1855.029120745979	2
0	5364	1857.875230025784	3
0	5366	1859.110723914256	4
0	5371	1861.85723081546	5
0	5373	1862.284750068753	6
0	5374	1863.036402124262	5
0	5380	1863.41527548501	4
0	5385	1864.121050635144	3
0	5393	1867.387542158056	4
0	5395	1868.541533328319	5
0	5396	1869.296604570675	4
0	5401	1870.004098424929	3
0	5408	1874.232744267852	2
0	5414	1875.807046706581	1
0	5419	1875.95249318664	0
0	5425	1876.642889964291	1
0	5429	1878.985486805715	2
0	5434	1889.781028336258	1
0	5439	1889.83364978625	0
0	5452	1892.613386591407	1
0	5455	1893.141142272453	0
0	5466	1895.599251652271	1
0	5468	1895.809163996927	2
0	5469	1896.278352591896	1
0	5479	1898.580689979155	2
0	5480	1899.470312841207	1
0	5486	1900.950926415087	2
0	5488	1902.287759519756	1
0	5493	1905.334281028881	0
0	5506	1906.944342589248	1
0	5508	1907.413284394974	2
0	5510	1909.494767000981	3
0	5511	1911.471854986122	2
0	5517	1911.622596807286	3
0	5518	1911.858716916526	2
0	5523	1915.273483315645	1
0	5528	1917.452721154202	0
0	5551	1922.669899015438	1
0	5556	1924.795115725968	2
0	5558	1924.87478654137	3
0	5560	1926.251362815584	4
0	5564	1927.339573306429	3
0	5575	1930.906253187431	4
0	5576	1931.185948543623	3
0	5588	1935.032803386906	2
0	5594	1935.438711400953	3
0	5596	1936.251337032728	2
0	5602	1937.560955294627	3
0	5603	1937.692052539096	2
0	5610	1939.628049846187	3
0	5614	1944.597392796969	2
0	5620	1944.988370294842	1
0	5626	1945.40832287669	2
0	5631	1947.341284998505	3
0	5632	1949.541396898997	2
0	5639	1949.644600535824	3
0	5640	1950.492307494925	2
0	5649	1952.051654375194	3
0	5651	1953.742019937391	4
0	5653	1956.232313720706	5
0	5655	1956.234265726564	6
0	5657	1957.461266841293	7
0	5659	1958.862404699179	8
0	5661	1960.816765907617	9
0	5662	1960.956031012527	8
0	5671	1964.057050957376	9
0	5674	1966.007053013928	8
0	5679	1966.903009726013	7
0	5687	1968.878955419708	6
0	5696	1971.405360475314	5
0	5703	1972.966842573999	4
0	5708	1973.993910775045	3
0	5714	1978.525083059424	4
0	5715	1978.8707616564	3
0	5722	1982.69230451232	2
0	5727	1983.023196748204	1
0	5733	1984.027422345472	2
0	5737	1985.980530516964	3
0	5739	1986.172223857061	4
0	5741	1987.638945432728	5
0	5742	1987.754804287032	4
0	5750	1990.520792866883	5
0	5752	1996.547586233412	6
0	5753	1998.075410191646	5
0	5759	2001.21551339133	4
0	5764	2002.343794713153	3
0	5772	2003.551017159315	2
0	5779	2004.537218275024	1
0	5790	2010.195403106789	2
0	5793	2010.382626665161	1
0	5798	2010.99075522616	0
0	5816	2015.139646735828	1
0	5818	2017.675925952041	2
0	5820	2017.906104942849	3
0	5821	2018.123738582118	2
0	5827	2018.954485274985	1
0	5835	2023.846812658155	0
0	5848	2027.383829468364	1
0	5851	2029.89798418873	0
0	5858	2030.292734437837	1
0	5860	2031.63444232386	2
0	5865	2034.954590785876	1
0	5871	2036.512574446576	0
0	5887	2037.497808146294	1
0	5890	2038.634712171404	0
0	5901	2041.019897773259	1
0	5906	2043.550664576413	2
0	5907	2046.411590760589	1
0	5915	2050.007610227807	0
0	5921	2050.398599641444	1
0	5922	2050.577654126392	0
0	5938	2054.048917374647	1
0	5941	2054.801840900953	0
0	5955	2057.806921102608	1
0	5957	2059.194036011098	0
0	5967	2063.029134591126	1
0	5970	2065.11950579237	0
0	5976	2065.121276690465	1
0	5978	2065.225540502784	2
0	5980	2066.045862242869	1
0	5986	2067.980638710974	2
0	5989	2069.782243565718	3
0	5991	2070.067887596803	4
0	5992	2070.409981446793	3
0	5997	2070.749746795857	2
0	6004	2072.672298239251	1
0	6015	2073.599895245149	2
0	6016	2075.963686199023	1
0	6022	2077.376692437937	0
0	6054	2086.691470242685	1
0	6061	2089.927404597389	0
0	6077	2098.531559380246	1
0	6079	2099.650478468216	2
0	6080	2099.829564366877	1
0	6085	2100.50816678578	0
0	6091	2101.716143584417	1
0	6092	2103.702551014018	0
0	6101	2106.092638489755	1
0	6103	2106.779103082584	2
0	6105	2106.971606451503	3
0	6109	2109.054726543633	4
0	6113	2109.590023782013	5
0	6117	2111.043586737332	6
0	6121	2112.474352184148	5
0	6127	2113.485692452415	4
0	6138	2116.82383610655	5
0	6140	2118.401419765861	6
0	6142	2119.627085810148	7
0	6145	2124.401732442467	6
0	6151	2124.415381871809	7
0	6156	2126.672719180387	6
0	6164	2128.160815606679	5
0	6170	2128.871748499658	6
0	6171	2129.138991710939	5
0	6182	2133.490696386606	4
0	6189	2134.513966591774	5
0	6191	2136.660088688528	6
0	6193	2138.284714528458	7
0	6195	2140.605341560429	8
0	6197	2142.978210102444	9
0	6199	2143.017355615032	10
0	6200	2145.611113662909	9
0	6205	2146.184702870476	8
0	6213	2146.90157236059	7
0	6220	2148.054471025269	8
0	6225	2149.247874996667	9
0	6226	2154.77948789033	8
0	6232	2155.92628378544	9
0	6235	2156.745507255114	10
0	6236	2157.866968232137	9
0	6243	2159.386896302196	10
0	6244	2159.610123434365	9
0	6249	2159.778931003473	8
0	6258	2161.372840878039	7
0	6263	2161.70665458981	6
0	6270	2163.34048240926	5
0	6275	2164.324935679255	4
0	6281	2164.818936172287	5
0	6289	2170.97803585422	4
0	6296	2172.362315597415	5
0	6297	2172.571847502309	4
0	6303	2174.246680245587	3
0	6308	2178.516309919325	2
0	6318	2181.584960711877	3
0	6320	2185.826626566935	4
0	6322	2186.095789569811	5
0	6323	2187.335138357202	4
0	6329	2187.798896735567	3
0	6337	2189.880460056981	2
0	6342	2189.921751256641	1
0	6348	2190.018754835546	2
0	6349	2191.383692731501	1
0	6355	2194.884262027611	2
0	6358	2196.40807396307	1
0	6366	2197.077946536997	2
0	6368	2198.346194639592	3
0	6371	2200.654395704419	2
0	6377	2204.22423979461	1
0	6383	2206.265682270029	0
0	6398	2209.083056092774	1
0	6401	2209.790713883993	2
0	6403	2213.098327637436	3
0	6404	2214.819900996684	2
0	6410	2215.215533285158	3
0	6411	2216.121449183638	2
0	6416	2216.361587674434	1
0	6421	2216.587266158602	0
0	6448	2221.824539967519	1
0	6450	2224.989125095364	0
0	6463	2227.356709260692	1
0	6464	2229.466826476727	0
0	6470	2229.718929385219	1
0	6471	2229.855468262618	0
0	6481	2232.637449606649	1
0	6485	2233.665060049928	0
0	6496	2234.81960750228	1
0	6498	2237.148264729934	2
0	6504	2240.698168276436	1
0	6509	2240.816632814486	0
0	6517	2246.216504085067	1
0	6519	2246.466531666777	2
0	6520	2246.777234499331	1
0	6528	2251.575784248686	2
0	6529	2252.262163526854	1
0	6546	2264.231646139986	2
0	6549	2267.856592214426	1
0	6555	2269.225896061143	2
0	6557	2270.625637332999	3
0	6559	2272.560552487985	2
0	6564	2272.730138035774	1
0	6571	2273.080193029275	0
0	6578	2274.946483416533	1
0	6580	2275.038641677594	2
0	6583	2276.036904106582	1
0	6588	2278.446215989037	0
0	6607	2285.435789594124	1
0	6611	2290.518066914513	0
0	6621	2291.865863651138	1
0	6622	2291.925661647694	0
0	6639	2299.317002338399	1
0	6645	2302.42344111201	2
0	6646	2302.646443137889	1
0	6658	2307.064970414403	0
0	6670	2310.431883605673	1
0	6671	2311.979818323552	0
0	6678	2312.95841654177	1
0	6679	2313.6663508574	0
0	6685	2314.040698220052	1
0	6686	2315.632734014536	0
0	6699	2317.524164596942	1
0	6700	2317.558161646033	0
0	6713	2319.600345583422	1
0	6717	2320.07474163094	2
0	6719	2320.670698795996	1
0	6727	2321.167573667551	0
0	6749	2325.179377515935	1
0	6753	2325.93412944167	2
0	6758	2327.632879776698	1
0	6766	2328.634633921823	0
0	6775	2331.420945148622	1
0	6777	2333.432522392752	2
0	6779	2333.47797386304	3
0	6781	2334.875533173502	4
0	6784	2337.159233367302	3
0	6789	2338.130253309211	2
0	6794	2338.363424327258	1
0	6802	2341.656680270818	2
0	6805	2342.130692285327	3
0	6807	2343.387294642989	4
0	6809	2344.349458874083	5
0	6810	2346.79419376245	4
0	6817	2348.948141407437	3
0	6822	2350.004727615756	2
0	6829	2351.788021569391	1
0	6834	2352.716916941629	0
0	6881	2373.725325514321	1
0	6882	2373.940493168356	0
0	6891	2374.523519798135	1
0	6897	2375.381535575256	2
0	6899	2375.458104411517	3
0	6901	2375.507139142141	4
0	6904	2378.087716335711	3
0	6909	2378.352452089999	2
0	6914	2379.060700696506	1
0	6920	2379.239507798397	2
0	6921	2379.317661111588	1
0	6925	2379.671544115141	2
0	6929	2383.747819711269	1
0	6934	2384.255544638379	0
0	6938	2385.405489045156	1
0	6941	2391.259261864466	0
0	6957	2397.132659454649	1
0	6963	2399.24310141855	0
0	6981	2402.433462175181	1
0	6982	2404.224428321301	0
0	6989	2404.631425071908	1
0	6992	2406.453419754297	2
0	6995	2407.856779381353	1
0	7001	2408.708609803245	2
0	7003	2409.052995874651	3
0	7009	2413.281752268891	2
0	7017	2414.017042185797	3
0	7018	2416.718673410527	2
0	7024	2417.176532241673	3
0	7026	2417.932343725733	2
0	7032	2418.249200536174	1
0	7038	2419.947044720878	0
0	7049	2420.746619535255	1
0	7050	2421.024537160989	0
0	7066	2425.550282381407	1
0	7074	2428.360004897874	2
0	7077	2428.989256293962	1
0	7083	2429.881606488767	0
0	7091	2431.627130782259	1
0	7094	2434.385649084132	2
0	7096	2437.48291237014	3
0	7097	2440.65506205263	2
0	7104	2443.135065641045	3
0	7105	2443.699734326092	2
0	7111	2444.900519978153	3
0	7113	2447.292903161257	2
0	7121	2453.094626266695	1
0	7128	2453.322590292889	0
0	7135	2454.307687895285	1
0	7138	2455.186939320722	0
0	7151	2458.927426425446	1
0	7152	2459.738665816934	0
0	7158	2460.119219736006	1
0	7162	2462.645845920581	2
0	7164	2462.833739982692	3
0	7166	2463.164248108815	4
0	7167	2463.56770746831	3
0	7174	2467.322538335784	2
0	7180	2471.946527415083	1
0	7186	2474.362959708489	2
0	7189	2475.390606635307	1
0	7196	2477.112541398701	0
0	7215	2487.119216596297	1
0	7219	2490.37342593837	2
0	7220	2490.635060250146	1
0	7226	2491.079081807522	0
0	7232	2492.454310717175	1
0	7236	2495.004584816405	0
0	7242	2495.077254621897	1
0	7244	2499.849914193238	0
0	7289	2513.795792836633	1
0	7292	2515.764983224117	0
0	7298	2516.426439583826	1
0	7302	2518.632873537201	2
0	7305	2519.553017575516	3
0	7307	2523.584244661621	2
0	7314	2524.224854232679	1
0	7320	2524.634770850412	0
0	7328	2527.150216786032	1
0	7330	2527.460749513221	2
0	7332	2528.082167089652	3
0	7334	2528.62856474769	4
0	7335	2529.673806933031	3
0	7342	2530.735816681265	4
0	7343	2531.114239927825	3
0	7349	2531.379200706352	4
0	7352	2533.3075285163	3
0	7357	2533.363508393983	2
0	7365	2535.268079804934	3
0	7366	2537.02644348353	2
0	7371	2538.385060563965	1
0	7377	2538.998185697263	2
0	7378	2539.338977358347	1
0	7382	2542.287916029951	2
0	7384	2542.296587598061	3
0	7390	2543.357265752471	4
0	7392	2544.374372572187	5
0	7394	2545.824651114496	4
0	7400	2547.134531916167	5
0	7401	2547.921019548392	4
0	7407	2549.936269046502	5
0	7408	2551.343998966446	4
0	7417	2552.682013196649	5
0	7418	2553.273715121604	4
0	7425	2553.867381887724	5
0	7428	2554.622779682591	6
0	7433	2556.279701212479	7
0	7434	2558.971345954719	6
0	7441	2559.449219270501	5
0	7449	2562.941891094959	4
0	7457	2565.402802118796	5
0	7459	2566.237435949284	6
0	7460	2566.527034373119	5
0	7466	2568.09021656394	6
0	7469	2569.013917586362	5
0	7475	2570.542424565325	4
0	7481	2572.401693012482	3
0	7487	2574.046590022862	4
0	7490	2575.44608674754	5
0	7493	2577.286190112935	4
0	7501	2579.733557836068	3
0	7507	2580.814809339015	4
0	7508	2580.880828526437	3
0	7514	2581.487679604089	4
0	7516	2581.50252321235	5
0	7519	2582.983742719354	6
0	7520	2583.336855524398	5
0	7525	2583.988110180953	4
0	7530	2584.116354658523	3
0	7535	2584.789165935674	2
0	7541	2591.699550217678	3
0	7542	2594.027223174073	2
0	7548	2595.021152587306	1
0	7553	2595.024212947971	0
0	7563	2597.051002997895	1
0	7565	2598.888709972364	2
0	7566	2599.391554754939	1
0	7571	2599.626013898951	0
0	7577	2601.156076530765	1
0	7579	2601.181875910105	2
0	7581	2604.504514128735	3
0	7582	2604.66807877242	2
0	7587	2606.759353443147	1
0	7591	2606.976583924028	2
0	7595	2611.379572645668	1
0	7603	2614.036724318213	2
0	7605	2617.780604876642	3
0	7606	2618.151954585422	2
0	7611	2618.198460555714	1
0	7616	2620.259477112202	0
0	7620	2622.221313954472	1
0	7624	2622.987511434626	2
0	7626	2623.870400878191	3
0	7627	2625.02831473207	2
0	7634	2628.6665190722	1
0	7640	2630.818048308471	0
0	7661	2636.642869274952	1
0	7662	2637.160342696328	0
0	7679	2640.625365192045	1
0	7681	2640.682904390169	2
0	7682	2640.691766815784	1
0	7690	2643.203515274644	2
0	7692	2644.755851840366	3
0	7696	2647.204025414317	4
0	7698	2647.731086078466	5
0	7700	2649.205127615052	6
0	7701	2651.527454164351	5
0	7708	2653.417831006106	4
0	7714	2653.592979297612	5
0	7718	2658.446826764398	4
0	7723	2660.218808402712	3
0	7733	2665.922429723364	2
0	7739	2666.426859264662	3
0	7740	2668.841331788636	2
0	7745	2669.844788724366	1
0	7750	2670.606623604113	0
0	7754	2672.467617913672	1
0	7759	2674.014591256328	2
0	7763	2676.383672571085	3
0	7766	2678.965565835053	2
0	7771	2679.706966431856	1
0	7777	2680.015032163101	2
0	7778	2680.444418170051	1
0	7787	2682.650235488992	2
0	7789	2683.947230260792	3
0	7790	2684.24472733193	2
0	7796	2685.795179883708	1
0	7802	2687.502460501005	0
0	7809	2690.152467890701	1
0	7810	2691.673766026731	0
0	7821	2692.503229390601	1
0	7822	2692.957009625327	0
0	7828	2694.821679559874	1
0	7830	2696.541947891379	2
0	7831	2696.956762330455	1
0	7836	2698.235142078559	0
0	7852	2704.351134663279	1
0	7853	2704.514786064397	0
0	7899	2713.938867851751	1
0	7901	2714.984977470559	2
0	7904	2716.690473939136	1
0	7910	2718.857138698241	0
0	7927	2723.366013004437	1
0	7929	2725.476006120661	0
0	7936	2729.25625622923	1
0	7938	2729.9410886932	0
0	7944	2730.605617727056	1
0	7945	2731.724134034313	0
0	7956	2732.64904909068	1
0	7958	2733.025007516615	2
0	7959	2733.103909984009	1
0	7964	2733.287255095971	0
0	7974	2735.971773773598	1
0	7977	2737.895920666146	2
0	7979	2738.113623032587	1
0	7985	2738.714136413472	2
0	7986	2739.213915290826	1
0	7993	2743.701420614319	2
0	7995	2745.304832239412	3
0	7996	2746.442804811865	2
0	8007	2751.210370723087	1
0	8016	2755.74343220012	2
0	8017	2757.937012452122	1
0	8022	2759.02122076568	0
0	8047	2762.16648223946	1
0	8048	2764.779667755761	0
0	8057	2767.218969509006	1
0	8058	2768.100933702349	0
0	8080	2779.844207034945	1
0	8081	2779.909416561472	0
0	8093	2782.649782882803	1
0	8095	2782.932094918722	2
0	8098	2784.333598066323	1
0	8103	2784.538277345624	0
0	8109	2784.626271607613	1
0	8111	2784.762156796391	2
0	8113	2785.610266036388	3
0	8115	2786.285733617023	4
0	8118	2786.974504885649	3
0	8125	2788.172501937966	2
0	8130	2788.633393212927	1
0	8135	2791.16802131374	0
0	8153	2799.620434478466	1
0	8156	2801.1934726725	0
0	8165	2803.978097348488	1
0	8166	2804.746428566866	0
0	8186	2812.095005050278	1
0	8187	2816.356186096748	0
0	8193	2816.413708109433	1
0	8197	2819.09855765282	0
0	8203	2819.137489282181	1
0	8204	2819.897094734814	0
0	8210	2820.362253174635	1
0	8211	2821.045460918772	0
0	8217	2821.073243310141	1
0	8220	2822.724063125355	2
0	8225	2824.076450793641	3
0	8229	2827.882115674674	2
0	8234	2828.435386652245	1
0	8240	2829.751424667323	0
0	8246	2833.337878234741	1
0	8248	2833.373702366628	2
0	8250	2834.645657872866	3
0	8256	2836.869863870616	2
0	8262	2838.346243791258	1
0	8270	2840.893546982591	2
0	8271	2845.494900010601	1
0	8277	2846.458837242708	0
0	8293	2848.787173121542	1
0	8296	2849.016562562442	2
0	8297	2853.531310669035	1
0	8303	2853.883857009322	2
0	8306	2857.567123832255	3
0	8309	2858.122441368483	4
0	8314	2859.016364659918	5
0	8315	2860.361528277146	4
0	8320	2861.337393042756	3
0	8325	2861.444124895765	2
0	8331	2863.124657235073	3
0	8333	2866.2764420919	4
0	8335	2866.39408779052	5
0	8337	2867.219052890983	6
0	8339	2867.546431626492	7
0	8340	2867.594612312342	6
0	8348	2868.649089917376	7
0	8350	2868.650598608222	8
0	8351	2870.637020975641	7
0	8356	2870.999583828715	6
0	8362	2873.343834954083	7
0	8364	2874.943309334463	6
0	8369	2876.099128530502	5
0	8373	2877.181097610937	6
0	8377	2880.579109198617	7
0	8378	2881.222367024094	6
0	8382	2881.597290797657	7
0	8386	2882.712806671155	8
0	8389	2885.847883751722	7
0	8394	2886.610991765496	6
0	8400	2888.701564764615	7
0	8404	2889.67742956547	8
0	8406	2892.142753975307	9
0	8408	2893.545759031641	10
0	8411	2896.842797140421	9
0	8415	2897.145735749499	10
0	8417	2898.361624848987	11
0	8419	2899.072261154774	12
0	8423	2899.814770273267	13
0	8425	2901.158014031863	14
0	8426	2901.58332527263	13
0	8430	2904.226810095399	14
0	8434	2905.532743496049	15
0	8438	2907.699675672975	14
0	8444	2907.991317374255	15
0	8446	2911.982616793998	16
0	8448	2916.196666520232	17
0	8449	2916.50212871939	16
0	8453	2917.590436122747	17
0	8456	2920.785508253689	16
0	8460	2921.33461835444	17
0	8464	2922.689786170806	18
0	8466	2925.558518283961	19
0	8467	2925.96004676188	18
0	8472	2926.407645348803	17
0	8476	2926.601894224036	18
0	8478	2929.582840711746	19
0	8484	2932.685668299939	18
0	8491	2933.198283179575	19
0	8492	2933.220478424741	18
0	8499	2934.100807300086	19
0	8502	2935.714454052841	18
0	8507	2938.449018138017	17
0	8514	2940.54184014419	18
0	8516	2941.020537733706	19
0	8517	2942.948498403549	18
0	8523	2944.023936550347	17
0	8531	2946.035154733709	18
0	8533	2949.356453559545	19
0	8535	2951.079874970868	20
0	8536	2951.675597284899	19
0	8541	2952.236482283258	18
0	8548	2953.341033619802	19
0	8550	2953.605750162805	20
0	8551	2954.727157840507	19
0	8557	2957.135842278181	20
0	8559	2958.992997980603	21
0	8560	2959.240034203502	20
0	8567	2959.550094079011	21
0	8568	2960.233339158203	20
0	8574	2960.715590352126	21
0	8577	2961.910022983498	20
0	8588	2964.846213616074	21
0	8591	2968.21376334998	20
0	8596	2968.957477078852	19
0	8602	2969.213564675629	20
0	8604	2970.175115359063	19
0	8615	2975.596384152892	18
0	8621	2975.638357024225	19
0	8623	2976.23774828982	20
0	8629	2980.787294717878	19
0	8635	2981.71805827959	20
0	8636	2981.994467617612	19
0	8641	2983.110394718895	18
0	8646	2983.253747906399	17
0	8652	2988.400940968972	18
0	8655	2989.458459111522	17
0	8661	2989.693794768549	18
0	8669	2994.558544109024	17
0	8677	2995.550832625931	16
0	8684	2997.46102536203	17
0	8685	2998.471300473702	16
0	8693	3002.064566237671	15
0	8699	3003.590246636428	14
0	8704	3003.708480630102	13
0	8714	3006.179737431865	14
0	8719	3009.800013117464	13
0	8728	3014.2495142521	14
0	8729	3016.921083427746	13
0	8736	3018.00030708623	14
0	8737	3018.618169890397	13
0	8743	3019.135251588096	14
0	8751	3026.624160630764	13
0	8757	3029.667504401561	12
0	8762	3029.702105290363	11
0	8767	3029.838154056339	10
0	8773	3031.721802565291	11
0	8779	3034.662083375004	10
0	8784	3035.129595170462	9
0	8790	3035.258205957115	10
0	8792	3036.132744183137	11
0	8796	3038.060308889334	12
0	8797	3039.221126373911	11
0	8803	3039.91243501211	10
0	8809	3041.513193908836	9
0	8815	3042.263757118759	10
0	8816	3042.797231383013	9
0	8821	3043.463674547184	8
0	8827	3043.689237729218	9
0	8829	3044.933977776687	10
0	8837	3049.147384520398	9
0	8842	3050.213285791295	8
0	8847	3051.629800919721	7
0	8853	3051.825454673768	6
0	8858	3051.83787819102	5
0	8866	3052.850526973021	4
0	8872	3057.286247234734	3
0	8879	3058.59130084438	4
0	8881	3058.774593852396	5
0	8883	3058.908312743229	6
0	8885	3059.716683997263	7
0	8887	3059.796362920145	6
0	8897	3063.763801500302	7
0	8898	3066.658680974633	6
0	8904	3067.464155906692	7
0	8906	3068.538964161113	6
0	8912	3068.832868360612	7
0	8915	3071.478231963707	6
0	8926	3075.478993006121	5
0	8933	3076.963264709703	6
0	8934	3078.394472494525	5
0	8940	3079.815128628411	6
0	8942	3080.803004516449	7
0	8943	3082.132267097952	6
0	8951	3084.117420011088	7
0	8957	3088.097944386571	8
0	8958	3090.108086603601	7
0	8963	3091.08493751907	6
0	8969	3091.687642202421	7
0	8970	3092.296268980195	6
0	8980	3095.366776420452	5
0	8987	3097.893993166268	6
0	8989	3097.959499763722	7
0	8991	3099.216038483151	8
0	8993	3099.394196232693	9
0	9001	3103.190784774987	10
0	9006	3104.304387302421	9
0	9014	3105.209454313227	8
0	9019	3105.569967449214	7
0	9025	3106.47568853404	8
0	9027	3107.817050808203	7
0	9034	3108.547370441375	8
0	9035	3108.751979365079	7
0	9040	3108.78066800008	6
0	9047	3111.709924078437	7
0	9048	3114.586089462871	6
0	9054	3115.489934488741	7
0	9055	3116.282278353325	6
0	9063	3118.721909024583	7
0	9064	3119.256472359936	6
0	9068	3121.022802341883	7
0	9077	3127.321606362785	8
0	9078	3128.05513436439	7
0	9084	3131.502432986435	6
0	9089	3132.381817607755	5
0	9096	3135.098816262478	4
0	9101	3140.789781277191	3
0	9108	3143.559265865902	4
0	9110	3145.882952121818	3
0	9117	3146.821777296379	4
0	9119	3148.10415093076	3
0	9125	3148.290607325904	4
0	9128	3148.959212957918	3
0	9134	3149.203936770162	4
0	9136	3150.305561156603	5
0	9137	3151.526675171595	4
0	9143	3153.258558452609	3
0	9154	3156.884991921386	2
0	9159	3158.397204867426	1
0	9165	3158.761461709116	2
0	9168	3159.024766569651	3
0	9170	3161.533089194498	2
0	9175	3161.658339404246	1
0	9180	3161.895721589135	0
0	9186	3163.986485042697	1
0	9188	3165.046834471702	2
0	9189	3165.310126551808	1
0	9195	3165.822809732134	0
0	9216	3167.704640917362	1
0	9218	3168.307536724459	2
0	9222	3173.643339432772	3
0	9223	3173.777553578271	2
0	9234	3176.854012050287	3
0	9236	3177.131441717231	4
0	9238	3177.147606581904	5
0	9242	3179.235731776042	6
0	9247	3181.619800773144	5
0	9254	3182.818486621142	6
0	9255	3183.217397577546	5
0	9263	3183.306315359439	6
0	9264	3183.916269788116	5
0	9269	3184.929815722505	4
0	9274	3185.142181872236	3
0	9278	3185.238129471032	4
0	9282	3186.774493172028	5
0	9284	3187.202175702474	6
0	9285	3187.525484395134	5
0	9291	3188.114412741529	6
0	9297	3189.0318601855	7
0	9298	3189.692666481992	6
0	9308	3196.638654586748	5
0	9313	3197.13057060649	4
0	9318	3198.943535555943	3
0	9322	3199.260266604917	4
0	9329	3202.515175588324	3
0	9337	3206.242914053752	2
0	9344	3209.279205140226	1
0	9349	3209.801656695415	0
0	9358	3211.495440396636	1
0	9359	3211.918422238719	0
0	9371	3216.202666023101	1
0	9372	3216.377820967517	0
0	9395	3218.272113056438	1
0	9398	3218.599965521667	0
0	9423	3225.940502910213	1
0	9424	3226.545958450879	0
0	9439	3233.017128041327	1
0	9443	3234.288178042005	2
0	9444	3234.588942197962	1
0	9451	3235.38097151947	2
0	9452	3236.579769822407	1
0	9460	3241.195551357944	0
0	9487	3245.996161713748	1
0	9488	3247.623507556671	0
0	9502	3249.848102252302	1
0	9504	3250.57265618225	2
0	9505	3251.731663844824	1
0	9514	3254.115028974976	0
0	9525	3258.7858646295	1
0	9526	3258.981677534817	0
0	9544	3262.667909399825	1
0	9545	3264.983813834895	0
0	9588	3286.398080302657	1
0	9592	3289.264872974976	0
0	9604	3291.21303734115	1
0	9605	3294.212546928987	0
0	9617	3301.390144953601	1
0	9618	3304.424245893659	0
0	9626	3308.148966535864	1
0	9627	3308.388137985981	0
0	9646	3317.362676730667	1
0	9653	3321.855971031581	0
0	9665	3330.557510504376	1
0	9668	3338.643746730011	0
0	9683	3343.852362533583	1
0	9688	3345.763477340228	2
0	9689	3348.534603750451	1
0	9696	3350.038240075643	2
0	9697	3354.852432337853	1
0	9703	3355.002560701344	2
0	9704	3355.033783328984	1
0	9709	3355.438734751495	0
0	9715	3356.429331660313	1
0	9716	3356.576256006247	0
0	9725	3360.057377241799	1
0	9728	3365.357822293012	0
0	9771	3390.351847858187	1
0	9772	3393.497684858316	0
0	9787	3400.841451622017	1
0	9789	3401.367492968202	2
0	9793	3402.83606266873	1
0	9799	3405.410123938773	0
0	9815	3407.613102363926	1
0	9821	3412.667699540603	2
0	9825	3418.929093331044	3
0	9826	3418.937675244631	2
0	9831	3419.056995873996	1
0	9841	3424.160264906631	2
0	9849	3430.653646374709	3
0	9851	3432.698179437986	4
0	9852	3433.17970508546	3
0	9858	3433.653322611117	4
0	9860	3434.303488315136	3
0	9865	3434.628240219193	2
0	9870	3436.595144571982	1
0	9874	3439.124054712505	2
0	9878	3440.272754604393	3
0	9882	3442.136034102593	4
0	9883	3443.374822401024	3
0	9891	3448.681460410668	2
0	9897	3449.862226021867	3
0	9900	3450.150986224683	4
0	9901	3450.233187651391	3
0	9911	3452.698413926532	2
0	9917	3452.956028315732	3
0	9920	3453.211615364463	2
0	9925	3453.227318652087	1
0	9930	3453.230953589011	0
0	9938	3459.838227475913	1
0	9940	3460.545879185789	2
0	9944	3461.467172503914	3
0	9946	3461.501084337252	4
0	9950	3462.704805732142	3
0	9957	3466.172361121837	2
0	9961	3466.53034448517	3
0	9963	3467.521817643365	4
0	9969	3469.867824345642	5
0	9970	3470.0595078723	4
0	9974	3470.499446648186	5
0	9980	3475.891522486139	4
0	9989	3479.669583633613	5
0	9990	3483.619650160006	4
0	9996	3484.844174626302	5
0	10000	3488.444776453387	4
0	10006	3491.939437174533	3
0	10013	3493.068013979432	2
0	10020	3493.567706414899	3
0	10021	3493.99653128282	2
0	10026	3495.463564412378	1
0	10032	3495.504667974331	2
0	10033	3496.384618296934	1
0	10041	3500.494196053897	2
0	10042	3500.885811007341	1
0	10047	3501.611401392533	0
0	10056	3503.742746744751	1
0	10059	3506.000511111057	0
0	10075	3508.857706998466	1
0	10078	3511.818453242299	0
0	10103	3518.441990800567	1
0	10104	3519.905531275914	0
0	10133	3525.391701718154	1
0	10137	3528.855600460924	2
0	10138	3530.63512174955	1
0	10145	3532.623575457021	2
0	10147	3532.757134770363	3
0	10149	3533.286163979359	4
0	10150	3533.611988520584	3
0	10157	3540.036901674365	2
0	10165	3540.539901702117	1
0	10171	3540.991494826971	2
0	10172	3541.553371329629	1
0	10179	3542.618515855548	2
0	10181	3543.682109634167	3
0	10185	3547.27935092122	4
0	10186	3549.253793742755	3
0	10191	3549.318613784305	2
0	10196	3550.588142674628	1
0	10202	3552.685657990767	2
0	10208	3556.722890951624	3
0	10211	3557.390678575095	4
0	10215	3561.119619638243	5
0	10217	3561.204883520239	6
0	10218	3561.682757550651	5
0	10224	3561.750712614347	6
0	10225	3562.799552591231	5
0	10230	3562.993927991198	4
0	10236	3563.126711957707	5
0	10237	3563.589329943273	4
0	10241	3563.8262702592	5
0	10244	3565.5732482302	4
0	10248	3567.945299540635	5
0	10250	3570.48683050852	6
0	10252	3570.68501435781	7
0	10260	3572.825881234947	6
0	10266	3573.651094835318	5
0	10271	3574.931966065248	4
0	10276	3575.267822699951	3
0	10281	3575.747494680356	2
0	10290	3578.868840537128	1
0	10296	3578.99500248826	2
0	10298	3579.654808548117	1
0	10304	3582.205705617605	0
0	10311	3583.336624411349	1
0	10314	3583.802997530087	2
0	10315	3585.922242532014	1
0	10322	3586.815320220293	2
0	10324	3587.745089569447	3
0	10326	3588.042126178707	4
0	10328	3589.941586851757	5
0	10329	3591.852126920031	4
0	10334	3591.907332859922	3
0	10339	3592.870634367203	2
0	10344	3592.934980974422	1
0	10349	3595.853728332896	0
0	10356	3597.596901243981	1
0	10357	3597.701645694676	0
0	10382	3602.318753681373	1
0	10383	3602.959071789516	0
0	10387	3606.300735518844	1
0	10394	3608.629843580478	2
0	10396	3608.858811793059	3
0	10398	3609.349590513661	4
0	10399	3609.716942526403	3
0	10405	3610.26311947382	2
0	10410	3611.177866241771	1
0	10415	3611.584752530546	0
0	10428	3616.06286497121	1
0	10429	3616.086468680031	0
0	10446	3620.99711173666	1
0	10449	3621.984408212797	0
0	10457	3622.493291709551	1
0	10458	3623.383142006142	0
0	10468	3627.607028381223	1
0	10472	3628.954266300785	2
0	10473	3629.193143074836	1
0	10480	3630.150282129601	2
0	10481	3630.958961542144	1
0	10486	3632.234009759768	0
0	10517	3639.10536174284	1
0	10518	3639.485559096573	0
0	10524	3639.688503480084	1
0	10525	3639.961505693633	0
0	10538	3642.097820900987	1
0	10539	3643.783410278047	0
0	10577	3653.367161981691	1
0	10585	3657.301440372484	0
0	10592	3658.494844145847	1
0	10594	3664.144260462835	2
0	10595	3664.455777966702	1
0	10601	3665.715829208793	0
0	10632	3672.662523305905	1
0	10635	3674.358443327883	0
0	10641	3674.459784487366	1
0	10643	3675.232038830658	2
0	10645	3678.328875652308	1
0	10650	3678.434540055823	0
0	10665	3683.232745636296	1
0	10668	3686.221635119433	0
0	10707	3697.873071982547	1
0	10710	3699.20343767251	0
0	10722	3704.059826245763	1
0	10724	3706.281750581052	2
0	10725	3706.754477487344	1
0	10736	3709.424377136508	0
0	10748	3710.967837825295	1
0	10749	3711.15687739467	0
0	10755	3711.721717916628	1
0	10758	3713.833903435377	2
0	10759	3715.673101443267	1
0	10767	3717.085826035992	2
0	10768	3718.989503804471	1
0	10777	3719.620525277447	2
0	10778	3720.340245032767	1
0	10785	3720.912372047419	2
0	10788	3724.409465638175	1
0	10793	3724.544051839517	0
0	10800	3726.696247741576	1
0	10801	3728.239062758885	0
0	10807	3729.080976217389	1
0	10810	3731.039346788089	0
0	10827	3734.687496377949	1
0	10828	3734.883895740164	0
0	10835	3734.978343188271	1
0	10836	3735.407007131279	0
0	10860	3746.407716938889	1
0	10865	3749.645447509514	0
0	10885	3752.975337991015	1
0	10887	3753.856787308411	2
0	10888	3754.245076650064	1
0	10893	3754.819149032063	0
0	10899	3755.215720899837	1
0	10900	3755.22848095235	0
0	10908	3756.284778166617	1
0	10909	3756.57012577119	0
0	10929	3763.867221090167	1
0	10931	3763.959203375447	2
0	10933	3764.117059725305	3
0	10937	3766.081061944978	2
0	10943	3766.79315351409	3
0	10944	3767.052522973196	2
0	10952	3768.791090059664	3
0	10953	3769.463905771667	2
0	10959	3770.007659367249	3
0	10963	3771.875952104829	2
0	10969	3772.690851410095	3
0	10970	3773.187201846581	2
0	10979	3775.235222781306	3
0	10980	3776.199084381557	2
0	10985	3776.390762789162	1
0	10990	3776.953049043154	0
0	10998	3779.604159774653	1
0	10999	3781.020801916136	0
0	11006	3781.776524187461	1
0	11008	3784.358858559879	0
0	11034	3790.356713224157	1
0	11039	3792.852913336593	0
0	11061	3798.363881487551	1
0	11064	3802.007039892737	0
0	11075	3802.828421957047	1
0	11081	3803.939349158604	0
0	11095	3807.258916791769	1
0	11098	3809.455205035758	0
0	11123	3818.086437157641	1
0	11125	3819.514771911839	2
0	11127	3820.740777873968	3
0	11130	3825.837143407155	2
0	11136	3826.367075121239	3
0	11139	3829.694235178076	4
0	11141	3830.097348321703	5
0	11143	3830.284587728555	6
0	11145	3830.38141340326	7
0	11146	3830.601057079354	6
0	11151	3830.956745653427	5
0	11156	3832.26756096706	4
0	11163	3834.907020256384	5
0	11165	3836.780305555518	4
0	11170	3836.986408993554	3
0	11178	3840.176248003453	4
0	11181	3840.836200453694	5
0	11185	3843.263058211215	4
0	11191	3845.147520414607	3
0	11197	3852.369520123465	2
0	11203	3853.557249638181	1
0	11209	3855.134719743348	0
0	11217	3858.223876561688	1
0	11219	3861.790185350648	0
0	11227	3862.043419866769	1
0	11237	3866.333463983786	0
0	11243	3868.820101633934	1
0	11244	3869.675724955647	0
0	11254	3871.913952121421	1
0	11255	3873.11414305153	0
0	11261	3873.225897578812	1
0	11262	3873.30599349554	0
0	11269	3874.570800207361	1
0	11271	3874.740528413472	2
0	11272	3875.347438762672	1
0	11278	3876.199244089322	2
0	11280	3877.620825806201	3
0	11281	3878.45054051089	2
0	11286	3879.226229397251	1
0	11290	3880.059169434531	2
0	11292	3880.418737715059	3
0	11297	3882.41080055214	4
0	11299	3883.091276699749	5
0	11302	3889.288019531736	4
0	11307	3890.667675757513	3
0	11312	3890.988402681035	2
0	11321	3894.267088899104	1
0	11327	3895.25322610318	0
0	11333	3897.159532859134	1
0	11335	3897.705649522276	2
0	11340	3906.977191484532	1
0	11347	3907.162393737701	2
0	11353	3908.786581594518	3
0	11354	3911.182177092922	2
0	11359	3911.98771374292	1
0	11365	3912.762874687049	2
0	11369	3913.722554621333	3
0	11370	3914.292214373755	2
0	11376	3914.844776038433	3
0	11378	3915.495560820107	2
0	11384	3917.274974460956	3
0	11388	3920.492511575861	2
0	11395	3923.091330824077	3
0	11397	3923.104010523926	4
0	11400	3925.383790863573	3
0	11407	3928.336186212959	4
0	11408	3929.495824702499	3
0	11413	3929.70289927449	2
0	11418	3930.011558128561	1
0	11426	3930.862639045118	0
0	11456	3937.675847037146	1
0	11458	3938.305730921983	2
0	11464	3941.363014324791	3
0	11467	3944.608601925651	2
0	11473	3946.416386709052	1
0	11478	3947.023454224557	0
0	11486	3948.825694645675	1
0	11487	3949.128330782593	0
0	11500	3951.004506079496	1
0	11501	3952.112999990924	0
0	11522	3965.394386762558	1
0	11525	3965.90990968381	0
0	11531	3966.277792209098	1
0	11534	3967.053573665813	2
0	11535	3967.067456807077	1
0	11540	3967.259988382733	0
0	11548	3972.522056085128	1
0	11550	3975.276479396476	2
0	11552	3977.900398913724	3
0	11553	3979.108437667455	2
0	11559	3979.198675746488	3
0	11562	3980.403195275811	4
0	11563	3981.587798591289	3
0	11570	3982.217246389426	4
0	11573	3982.783591867933	5
0	11575	3984.289978855773	6
0	11576	3985.964383484445	5
0	11583	3987.497705655489	6
0	11585	3987.540971101211	7
0	11586	3987.668564528516	6
0	11594	3989.97912228735	5
0	11600	3991.142138424147	4
0	11610	3994.350147994488	3
0	11615	3995.508477852917	2
0	11621	3996.350712241666	1
0	11627	3996.431472732094	2
0	11629	3997.176051320381	1
0	11636	3997.827044119812	2
0	11641	3998.22079885756	3
0	11644	4003.476743419941	2
0	11650	4007.618441298842	1
0	11656	4008.87876754954	0
0	11662	4008.942747777063	1
0	11667	4012.108069778177	2
0	11668	4012.118651517603	1
0	11674	4018.573988173347	0
0	11710	4030.321379776551	1
0	11712	4031.359762629489	2
0	11713	4031.90051022841	1
0	11718	4031.905117043887	0
0	11726	4032.363204945962	1
0	11730	4034.877645450173	2
0	11731	4035.55322306176	1
0	11736	4035.917164029826	0
0	11752	4040.41673926276	1
0	11756	4042.44937410352	2
0	11759	4042.994577909517	1
0	11765	4043.151044503886	0
0	11772	4044.35676580015	1
0	11778	4048.153146443559	2
0	11779	4056.52070088821	1
0	11789	4057.586697253	2
0	11791	4057.943826690062	3
0	11795	4066.018951748355	2
0	11800	4066.711210537885	1
0	11806	4069.220191014029	0
0	11827	4073.425409595296	1
0	11833	4075.546041635504	2
0	11835	4077.353057142348	3
0	11837	4081.810300297934	2
0	11846	4082.63553291375	3
0	11851	4083.660500288599	4
0	11853	4084.713642200295	5
0	11854	4085.844276402993	4
0	11862	4086.823155824896	3
0	11868	4087.201638281101	2
0	11875	4087.967820847752	1
0	11882	4090.193985805268	2
0	11883	4090.507024773884	1
0	11888	4091.146768997756	0
0	11903	4093.364715117817	1
0	11907	4093.961112870404	2
0	11909	4094.325695318803	3
0	11913	4100.375872440058	2
0	11919	4100.395842426649	3
0	11923	4101.80292983972	2
0	11930	4102.801113195326	3
0	11932	4105.465194169844	4
0	11933	4105.493001719241	3
0	11939	4109.906377881239	2
0	11944	4110.204820956676	1
0	11951	4112.241038789378	2
0	11953	4114.061690691635	3
0	11954	4114.430408005527	2
0	11959	4114.526055789785	1
0	11964	4115.083300156805	0
0	11971	4117.414455913622	1
0	11972	4119.98980866474	0
0	11999	4123.764787669027	1
0	12000	4124.034393061152	0
0	12025	4131.104156299939	1
0	12026	4131.322799881168	0
0	12033	4133.741373927009	1
0	12034	4134.579230883407	0
0	12057	4140.451911395232	1
0	12059	4141.394418292132	2
0	12062	4142.944480648499	3
0	12064	4143.453818335684	4
0	12068	4146.532628125068	5
0	12069	4146.915788163623	4
0	12076	4149.709674877898	3
0	12081	4149.925834415613	2
0	12088	4150.292468321672	3
0	12094	4151.792996770526	4
0	12096	4152.142382052541	5
0	12097	4152.472839072666	4
0	12103	4152.507410485664	5
0	12106	4152.861433568307	6
0	12107	4153.007903257149	5
0	12114	4154.738645775748	4
0	12120	4157.942432454571	3
0	12127	4159.480323247245	4
0	12131	4164.144873491302	5
0	12132	4167.806459998615	4
0	12138	4168.038255577763	5
0	12145	4172.441196134902	4
0	12152	4174.800767602635	5
0	12153	4177.51302960954	4
0	12163	4179.506692854352	3
0	12170	4181.02379673045	4
0	12172	4181.089834690101	5
0	12174	4182.284758537055	4
0	12179	4183.597078413129	3
0	12185	4185.237099360885	2
0	12192	4186.334767346278	1
0	12198	4186.916269569565	2
0	12202	4187.57981122236	1
0	12209	4187.733531106242	2
0	12210	4190.689685444816	1
0	12217	4194.821589477511	0
0	12227	4197.09921408502	1
0	12230	4199.323971528751	0
0	12236	4201.929421055787	1
0	12237	4202.036237587182	0
0	12259	4205.178982891666	1
0	12262	4205.528172572962	0
0	12271	4205.758818462409	1
0	12273	4206.547723351621	2
0	12279	4211.14258515007	3
0	12280	4212.191338486725	2
0	12286	4213.172845708536	1
0	12291	4213.831626018225	0
0	12295	4214.346877428296	1
0	12301	4216.397338753332	0
0	12307	4217.759414041786	1
0	12308	4219.368538688324	0
0	12315	4219.598250865437	1
0	12317	4219.865777101734	2
0	12320	4224.071414090624	1
0	12325	4224.271175675621	0
0	12338	4230.649999473123	1
0	12341	4232.038653595062	0
0	12348	4232.625971688379	1
0	12351	4234.095161694827	0
0	12399	4253.451190234042	1
0	12401	4253.626404828919	2
0	12402	4254.247790713474	1
0	12408	4254.713804061809	2
0	12409	4255.726787612851	1
0	12415	4256.740920028367	2
0	12416	4256.910192045005	1
0	12425	4259.736092962086	0
0	12431	4261.861592913819	1
0	12433	4262.030838531276	0
0	12439	4263.090005441315	1
0	12440	4264.469941733954	0
0	12446	4267.084968160543	1
0	12448	4267.345031502672	2
0	12451	4272.301833593103	1
0	12458	4275.011796174837	0
0	12462	4277.680979302058	1
0	12464	4277.815865765027	2
0	12466	4277.892193179883	3
0	12469	4280.003049262262	2
0	12473	4281.276125447767	3
0	12475	4281.811894890226	4
0	12477	4284.010671895733	5
0	12480	4285.513049637164	4
0	12490	4290.731120357508	3
0	12499	4292.18926428999	4
0	12502	4292.578020469961	3
0	12511	4296.425537218153	4
0	12512	4297.842579963866	3
0	12521	4300.951018972353	4
0	12523	4301.280104752928	5
0	12524	4303.121447945919	4
0	12532	4303.326786850192	5
0	12535	4304.953613121956	6
0	12539	4305.221710576032	7
0	12540	4307.208178567938	6
0	12548	4313.054775660344	5
0	12554	4317.550263509295	4
0	12560	4318.796664605132	5
0	12561	4319.156461664727	4
0	12567	4319.325466274073	5
0	12570	4322.727261446502	6
0	12571	4323.863445627114	5
0	12576	4326.590567697359	4
0	12582	4327.178924622814	5
0	12586	4330.320444108805	6
0	12588	4330.90921574814	7
0	12589	4332.21259727953	6
0	12595	4333.207937993801	7
0	12600	4335.727132346937	6
0	12605	4336.542335845408	5
0	12611	4340.489328502585	4
0	12616	4340.824532578496	3
0	12620	4341.51153658725	4
0	12624	4343.360033349907	5
0	12626	4343.621885150599	6
0	12637	4349.20221935983	5
0	12646	4351.635405686051	4
0	12653	4354.225563644071	5
0	12663	4358.873943808651	6
0	12664	4360.634757434475	5
0	12671	4362.172147181726	4
0	12677	4362.562165319083	5
0	12678	4363.338053808183	4
0	12683	4363.387785911433	3
0	12687	4367.101245693598	4
0	12691	4367.4501691358	5
0	12693	4368.652250143803	6
0	12696	4368.771602239749	7
0	12698	4370.177640499097	6
0	12706	4371.998329800389	5
0	12713	4372.627735784443	4
0	12720	4375.522698962263	3
0	12726	4377.944473585395	2
0	12739	4382.434193719001	3
0	12745	4384.144850638412	4
0	12747	4385.292697887728	5
0	12750	4385.62228156316	4
0	12755	4385.78563510734	3
0	12765	4389.318633231787	2
0	12774	4391.953832797427	1
0	12780	4396.147621193036	0
0	12792	4398.530425660108	1
0	12793	4398.721311671921	0
0	12804	4399.013428151937	1
0	12805	4399.086581086044	0
0	12814	4402.79073704301	1
0	12815	4403.074889045705	0
0	12823	4405.768783021174	1
0	12824	4406.393279369461	0
0	12844	4415.33734797753	1
0	12846	4417.503546481772	2
0	12850	4418.57570451261	3
0	12851	4419.311056622927	2
0	12856	4420.73814645339	1
0	12866	4424.571311850642	2
0	12870	4427.504527379021	3
0	12872	4427.660152128071	4
0	12875	4429.989844612263	3
0	12881	4430.811767018587	2
0	12886	4431.499325901078	1
0	12893	4432.576408441256	2
0	12896	4433.264460385752	1
0	12905	4437.124195165654	2
0	12907	4438.532031799316	3
0	12908	4439.060896555724	2
0	12915	4439.340268456607	1
0	12923	4441.404032699849	2
0	12925	4449.715713743105	3
0	12926	4450.575522173321	2
0	12933	4452.175832699558	3
0	12935	4455.663156039044	4
0	12936	4456.031057629289	3
0	12941	4458.167775451878	2
0	12947	4458.476918424893	3
0	12951	4459.912840763801	4
0	12952	4461.040124281007	3
0	12960	4462.813380236678	4
0	12961	4465.08846521475	3
0	12967	4465.500877727205	4
0	12968	4466.330239896956	3
0	12974	4467.903358413325	2
0	12980	4469.553594877391	1
0	12986	4469.620906804066	2
0	12990	4472.849456672878	3
0	12991	4473.449344629333	2
0	12997	4474.851414725706	1
0	13002	4476.002614181762	0
0	13019	4480.759317137646	1
0	13020	4483.075268001893	0
0	13037	4490.79061358796	1
0	13038	4491.260352396518	0
0	13057	4500.289605332055	1
0	13058	4501.537820869627	0
0	13072	4505.698770072033	1
0	13076	4507.478073494038	0
0	13084	4509.439043582027	1
0	13091	4513.930597665966	2
0	13097	4516.692990695283	3
0	13098	4517.139508641348	2
0	13104	4520.109741394546	1
0	13111	4520.582813632636	0
0	13144	4528.287811187249	1
0	13145	4529.769771449874	0
0	13157	4532.88307419181	1
0	13161	4534.257003198755	2
0	13162	4536.040847062705	1
0	13169	4539.141462599616	2
0	13171	4539.714258119105	3
0	13173	4541.320029763851	4
0	13174	4542.258896863146	3
0	13184	4545.358928343696	2
0	13189	4545.550200248712	1
0	13196	4547.31176697382	0
0	13220	4557.02194036709	1
0	13222	4557.832103605842	2
0	13224	4560.640008479463	1
0	13230	4564.19487953468	0
0	13247	4572.457768472416	1
0	13248	4572.462117403375	0
0	13254	4572.668972775225	1
0	13257	4573.563872880093	0
0	13275	4576.579883539443	1
0	13279	4579.284232169104	2
0	13284	4586.982973222199	1
0	13292	4588.699960861107	2
0	13293	4591.632302138066	1
0	13301	4594.44775478195	2
0	13303	4594.823024500011	3
0	13306	4596.651966934955	2
0	13313	4598.577496872903	1
0	13318	4600.22273783305	0
0	13332	4605.206857739655	1
0	13333	4605.332446791115	0
0	13343	4606.847506626743	1
0	13346	4607.70619838791	0
0	13359	4609.269977655055	1
0	13361	4611.766261761712	0
0	13381	4616.808266885805	1
0	13387	4619.372459956259	2
0	13397	4626.737112021367	1
0	13403	4627.873185299969	2
0	13404	4628.510680938334	1
0	13409	4629.416377568536	0
0	13429	4636.06498850819	1
0	13432	4637.031022493867	0
0	13447	4640.106472991631	1
0	13449	4640.563095854374	2
0	13452	4642.384214302566	1
0	13458	4642.424296761643	2
0	13464	4647.846225739088	3
0	13466	4648.417311579283	4
0	13467	4650.447071585649	3
0	13473	4650.541450906367	4
0	13478	4653.710915873737	3
0	13483	4654.594944367784	2
0	13491	4655.390214239219	3
0	13493	4656.015797316914	2
0	13499	4656.106462849508	3
0	13500	4656.628386923948	2
0	13505	4657.657504535186	1
0	13509	4658.190191227418	2
0	13511	4658.221245875118	3
0	13513	4658.577835437757	4
0	13515	4659.799808390689	5
0	13520	4664.490854195846	4
0	13528	4665.086171670516	3
0	13535	4665.935589821055	4
0	13536	4665.974669346055	3
0	13544	4667.264002082426	2
0	13551	4668.342953662982	3
0	13556	4670.89066656571	4
0	13557	4673.834726587467	3
0	13562	4675.12521147482	2
0	13567	4675.176022637966	1
0	13572	4675.411879966626	0
0	13608	4684.250655960876	1
0	13611	4686.157757447378	0
0	13620	4689.847053250902	1
0	13622	4689.945813846975	2
0	13623	4690.776405360034	1
0	13628	4692.941901200173	0
0	13634	4693.043979608581	1
0	13635	4693.550770851714	0
0	13659	4702.581747071769	1
0	13660	4703.465695600927	0
0	13680	4709.365436420976	1
0	13683	4712.02135755302	0
0	13695	4716.89236721722	1
0	13697	4717.120680562374	2
0	13703	4719.449463310731	3
0	13707	4720.192278528914	4
0	13709	4720.580441462712	5
0	13713	4722.994576110847	6
0	13717	4723.295488373165	7
0	13719	4724.920182559455	8
0	13722	4727.823831265014	7
0	13732	4737.758425981401	6
0	13740	4738.78389668314	5
0	13747	4742.030763069622	6
0	13748	4742.908173252838	5
0	13756	4744.5498772921	4
0	13761	4744.97107723024	3
0	13769	4748.331446085457	4
0	13770	4749.733962348844	3
0	13776	4752.777621638832	4
0	13778	4753.815385427273	3
0	13783	4753.992155501922	2
0	13789	4754.35318842482	3
0	13791	4755.676527262808	2
0	13796	4755.75386532603	1
0	13803	4759.12721090244	0
0	13809	4759.7721624508	1
0	13810	4760.153087047688	0
0	13829	4763.319691941549	1
0	13833	4766.331702225789	2
0	13838	4767.005909687837	1
0	13845	4768.273835807418	2
0	13848	4769.664583437004	1
0	13857	4771.925398761718	0
0	13874	4779.894632812548	1
0	13875	4780.619299962911	0
0	13881	4781.236551480782	1
0	13884	4784.5659618715	0
0	13897	4788.599522480028	1
0	13899	4789.20183111858	0
0	13915	4789.797483578078	1
0	13917	4791.055755502826	0
0	13930	4793.663586850482	1
0	13931	4793.753826780993	0
0	13937	4794.168135368905	1
0	13939	4796.328787369027	0
0	13955	4799.528906489181	1
0	13959	4802.807257995192	2
0	13961	4803.289375975704	3
0	13962	4803.552915959876	2
0	13967	4804.363802776597	1
0	13973	4805.407335696962	0
0	13993	4817.657270975308	1
0	13995	4821.659766446953	2
0	13997	4822.559331604729	3
0	14000	4823.707102058263	2
0	14005	4824.270045023709	1
0	14011	4827.438651550227	2
0	14013	4829.02374126004	1
0	14019	4829.259704015877	2
0	14024	4837.509806822839	3
0	14025	4838.113151380113	2
0	14031	4838.70203424352	1
0	14039	4841.63569036056	2
0	14041	4842.411763276446	3
0	14042	4846.760172423293	2
0	14051	4847.779402552021	3
0	14052	4848.112701047025	2
0	14058	4848.205827061996	3
0	14064	4851.059133988475	2
0	14069	4851.448592361211	1
0	14074	4851.666395808546	0
0	14086	4852.434177801406	1
0	14090	4852.69995982392	2
0	14096	4857.078086975603	1
0	14106	4861.575276361074	0
0	14124	4864.980820876111	1
0	14125	4867.763030468975	0
0	14148	4876.332014008064	1
0	14153	4877.21652700525	2
0	14155	4878.052869653399	3
0	14158	4879.444772709929	2
0	14164	4883.68176345665	1
0	14171	4884.789920176459	0
0	14183	4887.635799093697	1
0	14185	4888.056086827914	2
0	14187	4888.499981965152	3
0	14192	4889.309989431335	2
0	14197	4890.296622823508	1
0	14205	4890.842439238837	2
0	14208	4892.802238474926	1
0	14213	4892.942322431828	0
0	14222	4894.70330513701	1
0	14225	4896.999666187178	0
0	14273	4917.826105668746	1
0	14275	4917.991298945414	2
0	14281	4921.701637376631	3
0	14285	4922.441277073072	4
0	14286	4923.228415923619	3
0	14293	4925.267229738012	4
0	14295	4925.315889209353	5
0	14297	4926.035719321795	4
0	14306	4927.952042078765	5
0	14307	4928.008676339523	4
0	14313	4928.912657872916	5
0	14315	4928.970366746637	6
0	14316	4929.103425624743	5
0	14321	4929.581885937033	4
0	14327	4931.263725893849	5
0	14328	4932.382959150772	4
0	14336	4933.704613500828	5
0	14339	4935.948770207974	6
0	14340	4937.390648751061	5
0	14345	4937.50368544982	4
0	14350	4937.948344117962	3
0	14356	4938.007103162678	4
0	14358	4938.539139261257	3
0	14365	4941.489099536395	2
0	14371	4941.794251214015	3
0	14372	4941.908895456632	2
0	14377	4945.020905448832	1
0	14381	4946.484436624416	2
0	14384	4948.432131378273	1
0	14391	4953.800741877908	0
0	14397	4955.49376319134	1
0	14401	4958.003912932526	2
0	14404	4958.901016826384	1
0	14413	4962.37431438355	2
0	14417	4964.015859564453	3
0	14420	4964.457031745937	2
0	14426	4964.810226971313	3
0	14428	4967.412799944266	2
0	14435	4968.429061753259	3
0	14438	4972.467874246538	2
0	14443	4972.745246170792	1
0	14449	4972.824682943261	2
0	14453	4975.314502675886	1
0	14460	4978.286783532788	0
0	14496	4983.940302501017	1
0	14498	4987.602508081333	2
0	14506	4991.745455107013	3
0	14507	4991.783783758265	2
0	14516	4994.5775658156	1
0	14523	4995.146697726328	0
0	14542	4997.393286442831	1
0	14543	4997.638187559404	0
0	14572	5009.074516299561	1
0	14573	5010.425918393778	0
0	14607	5021.163574289921	1
0	14609	5023.399184022553	2
0	14610	5024.719428737414	1
0	14618	5027.00377109158	0
0	14632	5032.049928567417	1
0	14635	5032.694149356615	2
0	14638	5032.920181228513	1
0	14644	5034.223335058989	0
0	14651	5035.053237112226	1
0	14653	5037.011265384497	2
0	14655	5038.924834598929	3
0	14657	5039.635583007237	4
0	14662	5043.789183012713	3
0	14669	5044.594200124765	4
0	14673	5045.803907692544	5
0	14676	5049.583511819721	4
0	14684	5051.28253407637	5
0	14687	5053.058159346639	6
0	14689	5057.234591224783	7
0	14690	5058.10316591628	6
0	14695	5058.260226641115	5
0	14702	5059.04689397029	6
0	14709	5063.57515489559	7
0	14711	5064.635124711039	8
0	14714	5067.135213558936	7
0	14720	5067.484563047982	8
0	14724	5067.791566166839	7
0	14730	5068.892802766355	8
0	14731	5069.17339917415	7
0	14736	5070.139341641381	6
0	14746	5072.796522206373	7
0	14750	5075.986960631457	8
0	14751	5076.366089434578	7
0	14756	5077.213261765224	6
0	14763	5080.415090998698	5
0	14768	5081.074811831397	4
0	14777	5082.786791194116	5
0	14778	5083.543185973146	4
0	14783	5084.717800252158	3
0	14792	5087.790006533553	2
0	14798	5089.542611244296	3
0	14799	5089.958808931089	2
0	14804	5093.663209022349	1
0	14808	5093.830286139096	2
0	14812	5095.153734691903	3
0	14814	5095.369446269075	4
0	14815	5095.751937508439	3
0	14827	5099.426983320878	2
0	14833	5100.668644489363	1
0	14839	5105.125055703076	0
0	14861	5120.362698030155	1
0	14862	5122.055374327815	0
0	14869	5123.193630406418	1
0	14870	5124.916735241575	0
0	14882	5129.766959701351	1
0	14885	5130.659803733595	2
0	14886	5131.780857313883	1
0	14892	5132.10370785664	0
0	14923	5147.979277606502	1
0	14925	5148.199698712739	2
0	14929	5148.346063683701	3
0	14939	5150.614265786431	4
0	14940	5151.370495842839	3
0	14950	5153.002006679884	4
0	14951	5153.069092254407	3
0	14957	5153.571778981384	2
0	14962	5154.276611532886	1
0	14968	5156.357078321391	0
0	14992	5161.283066578469	1
0	14993	5161.648356843416	0
0	15012	5173.291665857441	1
0	15013	5174.600106850623	0
0	15023	5178.591446144806	1
0	15025	5178.765424201989	2
0	15028	5181.063259272846	1
0	15034	5181.131508417793	2
0	15035	5183.157561996757	1
0	15041	5183.421798108773	0
0	15058	5189.091642371469	1
0	15061	5190.500869360339	0
0	15073	5193.422041304049	1
0	15074	5193.669896265344	0
0	15081	5194.046415089056	1
0	15082	5194.104618467907	0
0	15099	5195.6699817209	1
0	15100	5197.199817305111	0
0	15111	5198.427608134021	1
0	15113	5198.444919203657	2
0	15130	5212.218276695891	1
0	15135	5212.835751356863	0
0	15154	5221.891845782998	1
0	15157	5222.520852156545	0
0	15163	5222.676842537628	1
0	15164	5223.472216397449	0
0	15187	5229.095755046495	1
0	15188	5229.707044258213	0
0	15215	5243.036772151146	1
0	15216	5243.696841523623	0
0	15225	5244.509774748931	1
0	15226	5245.045750050042	0
0	15258	5257.426073199226	1
0	15260	5257.460631799199	2
0	15263	5259.630951557061	1
0	15269	5260.82385133956	2
0	15273	5264.68175412986	1
0	15281	5268.688022612923	0
0	15287	5268.909738051589	1
0	15288	5269.875487906808	0
0	15329	5278.272057505241	1
0	15333	5281.862359435939	2
0	15334	5283.076896637885	1
0	15341	5284.031364438037	2
0	15343	5284.045712611931	3
0	15345	5285.986235186606	2
0	15351	5286.394493081707	3
0	15354	5287.234938571767	2
0	15364	5288.110170398908	3
0	15367	5290.144182795935	2
0	15373	5290.739727913126	1
0	15378	5290.98492666754	0
0	15394	5293.803718416917	1
0	15397	5296.4162832863	0
0	15414	5303.897953883621	1
0	15415	5304.263958506648	0
0	15423	5305.506436158711	1
0	15424	5306.957039873432	0
0	15430	5306.968241295251	1
0	15435	5308.909574996408	0
0	15442	5311.402738344461	1
0	15443	5311.636718332536	0
0	15454	5312.846172057102	1
0	15458	5314.764654223162	2
0	15463	5319.518720006605	1
0	15472	5323.843985114731	0
0	15482	5326.401222767847	1
0	15484	5327.936861901334	2
0	15488	5330.556295237915	3
0	15493	5335.978518379374	2
0	15502	5343.98013830853	3
0	15504	5345.137752881653	4
0	15505	5345.433554561223	3
0	15510	5346.298183201539	2
0	15516	5348.809324567179	1
0	15521	5349.51419393688	0
0	15544	5361.224060452786	1
0	15547	5365.299920819312	0
0	15553	5367.292231749188	1
0	15554	5367.372211428659	0
0	15565	5369.763561402506	1
0	15567	5370.30573297717	2
0	15569	5372.507793819548	3
0	15572	5373.864223997154	2
0	15578	5375.479770765246	1
0	15586	5377.986957766229	2
0	15589	5380.234274575328	3
0	15590	5382.141995296868	2
0	15597	5382.579407936635	3
0	15600	5383.212280518407	2
0	15608	5385.491762127469	1
0	15613	5385.779530890533	0
0	15629	5389.569941043233	1
0	15631	5391.174545289182	2
0	15634	5394.998736424948	1
0	15643	5397.112499385593	2
0	15645	5397.951552900078	3
0	15647	5399.061959663781	4
0	15648	5400.449388768365	3
0	15653	5400.874080321972	2
0	15660	5401.313629601704	1
0	15667	5401.453559847781	2
0	15669	5401.631597321695	3
0	15672	5402.424012303147	4
0	15675	5403.078473184243	3
0	15680	5403.215101741597	2
0	15686	5404.969661189054	1
0	15693	5405.355393930455	0
0	15707	5407.031235117989	1
0	15708	5408.438507342054	0
0	15715	5410.287410510636	1
0	15716	5411.838826952985	0
0	15738	5419.30567479409	1
0	15742	5422.087722577426	2
0	15743	5422.401040203041	1
0	15752	5424.495830452051	0
0	15766	5428.125232970397	1
0	15767	5429.429378169381	0
0	15780	5430.882743614212	1
0	15781	5431.358215811892	0
0	15787	5431.971395779863	1
0	15788	5434.065006507462	0
0	15807	5439.585026444682	1
0	15808	5439.863136839405	0
0	15818	5440.93193688182	1
0	15821	5441.985580583757	0
0	15830	5442.280377032634	1
0	15833	5443.807827322614	0
0	15839	5444.471586259173	1
0	15840	5445.073398682616	0
0	15854	5451.230919422195	1
0	15858	5453.150783955379	0
0	15885	5457.595704607365	1
0	15889	5459.425902150285	2
0	15890	5459.998476016248	1
0	15896	5461.775602734599	0
0	15918	5471.546991258583	1
0	15920	5472.933368500991	2
0	15921	5473.887355777575	1
0	15927	5474.635241097028	2
0	15929	5475.661983532448	1
0	15934	5476.902781158545	0
0	15948	5478.567756425135	1
0	15950	5480.055690761318	2
0	15952	5480.109794569503	3
0	15957	5480.663255462111	4
0	15961	5481.655784736634	5
0	15962	5481.95601747418	4
0	15967	5482.394079241131	3
0	15974	5484.466331577157	4
0	15978	5486.508554491565	3
0	15983	5487.00242043596	2
0	15989	5487.003984294033	3
0	15990	5487.148391714547	2
0	15995	5488.266366195811	1
0	15999	5489.330633179441	2
0	16004	5491.591853694596	3
0	16007	5492.671493100497	4
0	16008	5492.712961093878	3
0	16016	5493.911426716018	2
0	16025	5497.099855964561	1
0	16031	5499.949404799232	0
0	16047	5507.295499522393	1
0	16050	5507.441644074066	0
0	16059	5511.322678568668	1
0	16062	5511.558266714323	0
0	16069	5513.813506488611	1
0	16070	5513.901697257032	0
0	16094	5529.39312460658	1
0	16096	5529.759775273419	2
0	16097	5530.177807207255	1
0	16103	5536.082896873599	0
0	16126	5545.029381297454	1
0	16127	5545.13666858779	0
0	16144	5553.474655005603	1
0	16145	5554.043025329299	0
0	16152	5554.622601849574	1
0	16156	5557.002719010875	2
0	16158	5557.115145779123	3
0	16160	5557.474413451868	2
0	16166	5558.268753476223	1
0	16171	5558.457351133882	0
0	16211	5565.47665989159	1
0	16214	5567.69384358988	0
0	16227	5576.933046361326	1
0	16229	5576.964852102172	2
0	16232	5578.793837898065	1
0	16237	5579.436738482528	0
0	16270	5586.824125547616	1
0	16271	5588.595893306965	0
0	16278	5591.868341394844	1
0	16279	5593.031505960925	0
0	16298	5597.337657253708	1
0	16301	5598.606948507288	2
0	16302	5599.834129620753	1
0	16307	5599.952605098538	0
0	16322	5601.2551998226	1
0	16327	5602.845419533456	0
0	16334	5604.555665143518	1
0	16335	5606.194193925502	0
0	16341	5606.221467314458	1
0	16343	5606.4979488353	0
0	16362	5609.44037314827	1
0	16364	5609.805946217654	2
0	16365	5610.06591222229	1
0	16371	5613.508307731884	2
0	16373	5614.190841112927	3
0	16376	5616.30875353306	2
0	16381	5618.642553011263	1
0	16391	5620.892651996381	0
0	16397	5621.135837357228	1
0	16401	5624.94066693375	2
0	16402	5626.092689144169	1
0	16407	5626.640295915967	0
0	16449	5640.925848843803	1
0	16450	5642.536197117891	0
0	16470	5647.142309621871	1
0	16472	5648.304803279401	0
0	16483	5652.327101773385	1
0	16485	5656.206125461417	0
0	16507	5663.328706916892	1
0	16511	5665.446846813407	2
0	16512	5666.40088395283	1
0	16518	5667.485914547908	2
0	16521	5668.332529174571	3
0	16528	5672.784590686106	4
0	16530	5676.328666997046	5
0	16532	5677.101032256114	6
0	16534	5678.744742699495	7
0	16535	5679.175335283262	6
0	16540	5679.513388663563	5
0	16548	5679.994381443397	6
0	16549	5680.851911345974	5
0	16555	5680.972649949901	4
0	16560	5682.238545194059	3
0	16565	5682.531799738586	2
0	16570	5683.124606153917	1
0	16575	5683.851043429072	0
0	16615	5693.233902781433	1
0	16616	5694.364087639152	0
0	16623	5696.731731403095	1
0	16624	5698.430942459813	0
0	16630	5698.991867311467	1
0	16632	5703.427617159904	0
0	16654	5715.844964843018	1
0	16655	5715.978716487505	0
0	16664	5716.327126670321	1
0	16668	5720.328158066381	2
0	16669	5720.362941308811	1
0	16677	5722.400269191836	2
0	16679	5722.979723768226	3
0	16680	5723.391654900698	2
0	16687	5724.959405863901	1
0	16692	5725.017901972137	0
0	16711	5733.058259026674	1
0	16712	5734.874943311761	0
0	16720	5736.829605671829	1
0	16722	5740.052802142134	2
0	16723	5740.188335408839	1
0	16734	5741.811349873449	2
0	16735	5743.960137127589	1
0	16741	5744.455446140233	0
0	16747	5746.751282319286	1
0	16750	5747.987238109871	2
0	16752	5751.31787730387	3
0	16753	5754.410905861173	2
0	16760	5754.767537241208	3
0	16764	5759.208457856804	2
0	16771	5761.300597860598	3
0	16773	5761.410890250115	4
0	16775	5762.86184327339	5
0	16776	5763.915987507498	4
0	16784	5765.100382497269	3
0	16791	5766.212546623102	4
0	16792	5766.669904976888	3
0	16801	5769.498681806275	2
0	16808	5769.884490005597	3
0	16809	5769.889949797167	2
0	16815	5770.982107157267	3
0	16817	5772.189908380344	4
0	16819	5774.153298352364	5
0	16823	5777.350609953072	6
0	16829	5780.22315833449	7
0	16831	5783.351523234399	8
0	16833	5783.529137064002	9
0	16834	5783.703668040487	8
[...]
4	77018	26068.314383229932	7519.7068659473
4	77023	26077.036890933727	7522.8683895604
4	77033	26079.517117726015	7524.2221648006
4	77053	26084.279450631626	7513.9910756813
4	77058	26084.853761598868	7502.3937656845
4	77066	26087.447522129377	7502.4811204215
4	77079	26099.699819567506	7502.9903237754
4	77111	26105.757077982145	7500.8471185012
4	77119	26108.913328136487	7490.3996856259
4	77126	26112.714684007035	7488.2757249857
4	77135	26114.840948249044	7490.1307068511
4	77148	26117.650991290153	7489.7442929497
4	77243	26146.385928507526	7510.8050182186
4	77282	26156.78179109539	7516.4964754128
4	77287	26157.02120572532	7514.8542934889
4	77292	26158.208516423822	7507.0420490317
4	77297	26161.210991446567	7508.2922707861
4	77305	26167.967041332879	7499.4900514249
4	77326	26171.564690402922	7497.8777876316
4	77358	26178.792774470789	7497.4207219962
4	77367	26181.964807096343	7498.0864041931
4	77384	26190.912044248986	7502.4340164704
4	77397	26195.361100624427	7506.5082568542
4	77424	26209.868476980302	7518.6980002532
4	77472	26223.285117927167	7531.3400943644
4	77477	26224.623739791633	7530.3249799588
4	77482	26231.395887656811	7531.7383464499
4	77487	26234.495265182564	7512.9299781697
4	77494	26237.288572118147	7511.3399520249
4	77507	26240.674202298249	7511.9444347132
4	77597	26268.152225693933	7535.1862179249
4	77608	26273.547807614752	7531.970919403
4	77625	26284.277915068409	7540.3498756804
4	77713	26305.64535414031	7554.0963872523
4	77718	26306.256601923235	7548.5344721715
4	77727	26310.055402160978	7547.8916377818
4	77735	26319.311300943966	7554.4959825122
4	77751	26321.003736858954	7552.2096415653
4	77758	26323.814568367947	7554.5251918412
4	77770	26326.484825551708	7548.6227699685
4	77783	26333.270429309662	7552.6181732095
4	77800	26339.23955753339	7557.5803510625
4	77811	26339.889978532	7557.0134056667
4	77819	26341.060107170928	7552.2943457079
4	77824	26341.583046395408	7550.2446948262
4	77833	26344.992305015221	7544.8627851876
4	77862	26358.090644717149	7553.5256335159
4	77904	26369.430635062467	7554.6962604451
4	77911	26372.124413692804	7555.0446994496
4	77927	26387.831874377615	7566.8467543828
4	78022	26418.399282946095	7589.2529124399
4	78035	26420.162992721767	7589.7099804344
4	78098	26447.738611141735	7613.2940787458
4	78106	26451.846456095752	7615.8118851674
4	78119	26459.651415726371	7618.9993451333
4	78130	26465.982522738898	7619.8119961863
4	78174	26484.480182437237	7635.9781110924
4	78215	26495.122989704608	7638.9858896962
4	78222	26497.477586075455	7632.3279801947
4	78242	26505.094360481596	7631.1153141869
4	78251	26509.305704577693	7635.2731869834
4	78275	26514.759732022952	7623.7539105023
4	78280	26515.718974488571	7619.6663138727
4	78299	26525.309507288919	7615.7994725898
4	78332	26530.397432096207	7617.0615951216
4	78361	26540.788781316899	7622.2812530931
4	78382	26544.188270437029	7619.1637463675
4	78413	26551.201815979424	7614.8045942267
4	78425	26554.21066362742	7612.9682361047
4	78436	26555.796192737141	7605.1073344378
4	78441	26556.814133509312	7601.6631483544
4	78452	26557.638617985694	7588.7536625911
4	78478	26567.496008606268	7590.3952761692
4	78488	26572.357403933936	7588.6860919121
4	78513	26582.986061783461	7596.0709293811
4	78555	26598.418566891316	7598.8250271338
4	78751	26661.453723705002	7650.5953302226
4	79041	26764.991777001519	7747.4940796395
4	79080	26779.416078321298	7757.5046936853
4	79095	26782.861846926084	7750.357534363
4	79178	26803.902711322295	7769.0429259714
4	79194	26808.683603172749	7765.5657516914
4	79226	26819.886922195187	7775.3814782469
4	79303	26845.071970157255	7799.6401170497
4	79308	26845.11035701861	7797.7572829672
4	79317	26848.262412998267	7797.6873738343
4	79335	26858.889304959727	7807.8644887356
4	79344	26869.480436460888	7816.7153802901
4	79361	26870.665307242471	7817.5742447425
4	79368	26873.233423759137	7818.565140264
4	79390	26887.174742515868	7832.0888490623
4	79470	26902.315000452409	7846.8674368431
4	79507	26910.242559641074	7848.992565207
4	79530	26923.615251448983	7855.4717953977
4	79610	26944.582051566042	7873.0909021346
4	79616	26945.010795078178	7872.2265696869
4	79624	26946.372945317553	7852.3425619334
4	79641	26953.037859446577	7857.8977642709
4	79666	26957.4157215746	7857.0862626301
4	79671	26960.614433502654	7856.3320413893
4	79678	26962.548743887349	7854.934373321
4	79685	26965.804042057255	7852.5245988881
4	79690	26966.991840288065	7848.0081323515
4	79695	26967.766086166806	7844.5883523499
4	79702	26968.558246890057	7840.4235847874
4	79728	26978.51832960417	7847.607011896
4	79844	27018.94112217245	7887.0988827918
4	79854	27019.375237927357	7879.516606508
4	79885	27026.988539307387	7885.0230570871
4	79897	27034.042551654131	7886.2349784675
4	79951	27046.121871441729	7877.563622556
4	80002	27067.064098199534	7888.8989838091
4	80089	27091.106407113486	7906.110082989
4	80100	27095.638389175827	7910.2633992225
4	80134	27103.131395624623	7912.7628461497
4	80139	27104.612252844125	7911.4114862327
4	80146	27106.768521642452	7910.8076200433
4	80156	27110.358718867116	7911.5978680534
4	80162	27113.413943261482	7914.1379213204
4	80167	27115.4799895071	7914.4859028461
4	80172	27117.684045250612	7911.8375593237
4	80183	27124.224534559259	7917.1919089348
4	80200	27132.52926262816	7919.3763031309
4	80248	27143.81389496595	7921.4438405342
4	80253	27144.896057702739	7921.1132665863
4	80261	27147.146750674991	7910.315248948
4	80274	27148.598267563587	7898.2734284686
4	80281	27150.459600365947	7895.6672602159
4	80293	27153.861083205592	7890.6652761578
4	80300	27156.029909207143	7890.9090396958
4	80354	27177.544513613104	7909.7899347031
4	80362	27180.033103807754	7875.8593835423
4	80377	27183.555534992208	7874.5834488544
4	80400	27202.481767013175	7887.6859364516
4	80496	27232.231048112897	7908.5357813457
4	80514	27235.906315709888	7909.7576602001
4	80547	27248.6329668582	7917.4708521274
4	80553	27249.279627465436	7913.946582423
4	80558	27249.948211941521	7907.7762468519
4	80563	27250.831813361316	7904.8890521027
4	80568	27252.167718888567	7905.1910674821
4	80575	27257.03531600198	7909.2688549793
4	80586	27258.60355136443	7907.8962124625
4	80599	27263.938288740338	7900.2725519628
4	80639	27271.063425983925	7901.2016024906
4	80644	27272.157349522676	7900.668702471
4	80653	27274.602764423712	7903.0231163016
4	80833	27328.467858259298	7951.9469364476
4	80900	27364.536066565604	7975.7520252056
4	80925	27372.722061839894	7981.2112548578
4	80936	27375.680137103988	7982.0943472695
4	80951	27377.059300478304	7977.3481866284
4	81012	27392.905660633418	7988.9258119699
4	81021	27395.689063269376	7989.4548598781
4	81032	27400.329013900582	7981.2980951595
4	81051	27405.9928725817	7981.2807167178
4	81056	27406.299851021159	7977.2499020533
4	81061	27407.975575860913	7971.4941069463
4	81074	27419.128096799691	7959.8153490254
4	81159	27455.705974229131	7979.1746366688
4	81166	27455.866732386095	7972.685960629
4	81179	27458.27466728979	7971.3468330148
4	81184	27458.427628538263	7964.8200011566
4	81189	27462.252132743358	7959.5411324756
4	81194	27464.884410670933	7951.9251949543
4	81202	27466.138958102858	7950.4077620767
4	81308	27493.186769291259	7954.9827634187
4	81313	27493.447994789192	7954.8261233182
4	81322	27497.84307527425	7955.3400330327
4	81346	27506.545188074195	7963.1673875501
4	81388	27518.515490934883	7973.7435435692
4	81395	27519.466598309127	7968.63455688
4	81408	27522.951634964258	7971.5135633431
4	81496	27549.000593566342	7996.8246427017
4	81507	27551.800476253482	7994.1674985941
4	81518	27555.090669833541	7994.1196368542
4	81548	27566.620461886771	8004.7560403158
4	81555	27568.612263674673	7998.7445056846
4	81560	27569.726493873983	7992.0620964257
4	81568	27571.86437235594	7986.6041335768
4	81583	27577.068945211416	7991.3048847224
4	81649	27592.225163956935	7997.1191242163
4	81658	27595.603754404756	7995.6447102407
4	81668	27596.371910634832	7990.7427398837
4	81677	27599.082188863758	7988.8879908073
4	81781	27629.042005445281	8017.4456913053
4	81786	27629.547060869884	8006.8004496849
4	81801	27636.283425513698	8008.9012459818
4	81834	27645.863812040111	8012.5708025271
4	81847	27648.322806266049	8011.751372256
4	81860	27655.454762750786	7996.536441993
4	81867	27656.057638786081	7991.1192504042
4	81878	27663.364197087113	7958.6392292079
4	81934	27679.480719236253	7967.27669373
4	81977	27688.664173079272	7973.743770895
4	81994	27692.776531167292	7973.2602625973
4	81999	27693.371644857596	7970.6647709727
4	82007	27694.640887164736	7965.4903286809
4	82065	27716.928363539951	7983.1857282353
4	82079	27719.430578949895	7981.6791417376
4	82096	27726.982901175331	7988.8732323401
4	82117	27730.28574847679	7991.3794738042
4	82124	27736.740448841172	7988.9055442752
4	82129	27743.243506560783	7992.8099108328
4	82134	27744.061259911731	7984.3109220572
4	82139	27747.899610951653	7984.0331677637
4	82153	27753.672084007858	7982.0122908028
4	82212	27770.553571684063	7997.2951515006
4	82261	27777.426491075952	8003.7360373128
4	82268	27778.68346119272	8004.5219833484
4	82289	27787.788482684493	8000.0855606777
4	82395	27825.025748471293	8027.9257429952
4	82400	27825.143935180181	8022.5700047288
4	82405	27825.385883459025	8008.9997642198
4	82416	27831.905674992729	8010.1548090983
4	82451	27840.206304533903	7997.4090951866
4	82456	27842.922132525953	7989.3199312508
4	82463	27845.124548879211	7991.0231987749
4	82502	27859.645979541169	8004.6419114619
4	82507	27864.20110329469	8004.4105515125
4	82514	27871.011802191767	8010.4318558532
4	82525	27875.414274384558	7993.4320871898
4	82536	27882.053832746528	7997.2710957591
4	82764	27955.470860026275	8060.9240726531
4	82771	27956.870778823009	8058.6361344813
4	82779	27958.941520847506	8058.1342806406
4	82789	27959.544810386622	8032.194663605
4	82801	27962.934045714674	8029.7066462259
4	82818	27965.032364793283	8027.6193618463
4	82823	27965.778848376856	8016.6461883436
4	82831	27966.924455681439	8008.8950493918
4	82848	27973.943978773851	8012.0654873339
4	82884	27983.522722329861	8019.7028265352
4	82936	27999.840134492415	8022.9910256258
4	82957	28006.284017571919	8028.8978610314
4	82962	28007.372832404618	8024.3519103736
4	82987	28026.426169290579	8042.6953656636
4	83087	28055.464154463576	8069.9863860804
4	83096	28056.173592464828	8062.9196350564
4	83136	28063.880997745934	8067.6704761422
4	83150	28066.831359319885	8067.6323568645
4	83228	28090.683865497791	8081.9746498398
4	83237	28093.699611602291	8084.8114958949
4	83244	28097.939273940771	8086.7751150801
4	83270	28102.595099833143	8090.6900395965
4	83286	28108.62535939991	8090.5118104241
4	83321	28121.909868332508	8101.6947761277
4	83336	28126.320893233974	8094.1599959889
4	83413	28156.694996865542	8111.0468208993
4	83426	28164.661609626748	8112.8664034967
4	83437	28167.610782885124	8090.4055690125
4	83473	28177.655193356311	8094.5161688777
4	83480	28182.921843729766	8096.9655492179
4	83493	28189.081060701694	8098.1985353224
4	83514	28214.353532287266	8113.3370292597
4	83563	28235.333773677609	8129.9243101505
4	83570	28235.907396566894	8127.7648137681
4	83577	28238.868137471077	8121.9444965475
4	83601	28242.694880942216	8116.2864425807
4	83613	28244.90903415043	8116.1584430718
4	83630	28252.878004230621	8120.8376471508
4	83655	28260.560126433854	8124.0909572513
4	83664	28262.322905872294	8124.8420809014
4	83943	28344.653577278582	8204.8213933765
4	83948	28345.451954160341	8204.1575796707
4	83955	28346.684833209368	8196.8946995458
4	83966	28349.449598644913	8197.3074308885
4	83988	28354.505368837191	8198.9794659658
4	83997	28358.908450510749	8196.3588696566
4	84080	28386.124469886724	8218.7426407627
4	84090	28387.1659499227	8219.273324052
4	84095	28387.612831762675	8215.007302418
4	84100	28387.766545592895	8201.5039225053
4	84109	28393.549133743225	8207.2599444786
4	84119	28395.997111960788	8208.7097567158
4	84136	28402.94874148059	8207.9195361134
4	84165	28416.32247135093	8199.6766018832
4	84170	28416.945533133985	8197.5176502503
4	84175	28419.395527258857	8193.239636744
4	84182	28421.833497816902	8192.1108327569
4	84188	28424.10880744705	8181.8140115347
4	84193	28424.688274207968	8178.683306993
4	84203	28432.655344715297	8183.1294298197
4	84246	28442.568017804843	8184.8514336397
4	84252	28444.252305187282	8179.4860712989
4	84262	28448.081558486522	8182.1608950904
4	84378	28479.137398869596	8197.2913729558
4	84385	28480.179213033093	8197.6845365826
4	84403	28485.537629838648	8199.4331047503
4	84443	28499.430428121061	8205.7990125115
4	84472	28506.935017117231	8208.4665165047
4	84478	28510.96277157006	8209.3442993249
4	84485	28518.759928134156	8193.5509191519
4	84526	28534.724782707224	8207.3306014124
4	84533	28537.195320557409	8205.4811999182
4	84553	28540.936052082615	8198.5970767382
4	84567	28545.106431073084	8200.6232029743
4	84665	28574.650586752558	8229.6422360222
4	84684	28578.799552344276	8217.5633267445
4	84717	28587.729046068272	8224.4573007597
4	84725	28595.908340035696	8215.5494034185
4	84808	28612.103238855025	8229.1274136859
4	84820	28616.056867600977	8229.1935661986
4	84831	28619.253175868312	8232.0687959343
4	84862	28625.439838649955	8221.9672708616
4	84891	28630.745781206089	8189.1131039838
4	84899	28635.343687286245	8187.4930285377
4	84909	28637.430280972928	8189.1293711159
4	84919	28645.485405584043	8196.6531543181
4	84941	28650.074881111055	8199.4119852622
4	84949	28658.566564099518	8170.0499725306
4	84956	28660.41483791897	8170.9372633554
4	84963	28662.214375720687	8171.5747284702
4	84970	28664.721023870114	8162.9399303525
4	85008	28673.00252527298	8167.8795433248
4	85018	28675.047238629495	8164.4285974276
4	85023	28675.878355297652	8160.5535395882
4	85033	28679.995706045199	8164.1614847298
4	85052	28689.908137763904	8170.5563650613
4	85189	28732.284646442367	8210.012823417
4	85344	28781.03353352281	8246.8550597896
4	85349	28781.06135156919	8246.5398928163
4	85357	28783.794822203403	8243.5957484403
4	85386	28793.81254441874	8252.0731194203
4	85448	28809.742746168016	8261.5067368148
4	85457	28818.063979558001	8267.2701777402
4	85542	28843.682271976797	8291.7365614967
4	85548	28845.354227388912	8288.3640202738
4	85555	28846.447134060415	8288.0624617117
4	85562	28847.903355714637	8279.6001111224
4	85574	28855.2026264678	8282.3300853866
4	85582	28858.166571937555	8284.6532431053
4	85593	28861.014497101462	8285.0274149628
4	85608	28863.251627696026	8279.9912688139
4	85636	28871.787139105028	8288.381061361
4	85647	28874.439333382223	8290.6405417578
4	85652	28877.867162918676	8291.5506755258
4	85661	28885.1608445822	8296.1794359787
4	85668	28887.547553651832	8282.1175480567
4	85673	28891.050670790444	8283.2225781662
4	85692	28902.994484561516	8292.5091037115
4	85724	28911.592591744629	8297.8673586301
4	85730	28912.676576856942	8287.7134878138
4	85735	28916.305099173892	8289.5555174034
4	85740	28919.319251546924	8285.9303633664
4	85745	28919.767652725178	8285.5122047298
4	85750	28924.606973894776	8284.1020990874
4	85763	28928.032970567539	8275.957219812
4	85788	28930.670857498174	8277.5450893829
4	86013	29005.596619336142	8346.616369776
4	86018	29006.426626787733	8345.782926076
4	86023	29007.22290603625	8321.6079058293
4	86033	29010.264108251343	8322.2709016239
4	86230	29076.345324703626	8385.61080566
4	86237	29077.366569640924	8368.6211956787
4	86260	29089.10124003277	8376.3578606371
4	86309	29100.463181261765	8380.113113544
4	86329	29108.006750826355	8382.9920821495
4	86348	29110.625936037349	8380.3931223974
4	86361	29115.272178896774	8383.740079894
4	86370	29124.540497178171	8391.6863691727
4	86382	29125.945928404895	8388.4670721488
4	86401	29132.383114254768	8386.9775165545
4	86435	29138.090155293425	8378.6500133602
4	86442	29142.481842332268	8382.5306848137
4	86454	29150.182278187267	8378.2219859318
4	86461	29154.120171002087	8378.0550936539
4	86491	29168.517736520326	8389.0135242789
4	86498	29172.184571735207	8376.8790255626
4	86506	29173.252304201272	8368.2599887256
4	86517	29177.787303766797	8365.3800587842
4	86524	29183.811266139014	8370.9071861885
4	86541	29190.538898879501	8373.2736979924
4	86579	29201.861874868171	8377.7128335401
4	86584	29201.946838137392	8377.2878851476
4	86592	29204.748313771307	8370.7905194748
4	86701	29241.723439333244	8401.9809729042
4	86706	29243.456568723872	8402.0638343469
4	86712	29246.763420675248	8391.9011092306
4	86722	29255.466656440869	8399.1084060648
4	86732	29256.900279433854	8395.2118808967
4	86742	29259.692261345276	8392.7115677916
4	86753	29263.5661057161	8393.5247218369
4	86758	29265.957557026193	8395.4973220841
4	86769	29270.788187116842	8392.8960452885
4	86848	29291.164812931593	8397.7622426672
4	86857	29292.942487938757	8396.5801722972
4	86862	29295.145748258947	8397.1714895768
4	86871	29298.418378589897	8396.2477020182
4	86892	29303.074108693454	8391.0149486269
4	86905	29308.261718673441	8391.9539015533
4	86913	29309.119503854915	8390.6884315714
4	86932	29319.147347974847	8393.4222511558
4	86941	29321.17948028331	8391.8832204606
4	86993	29335.436687439856	8397.5037732681
4	87003	29338.150886598444	8396.9293544953
4	87053	29352.085759409306	8408.8317997234
4	87062	29361.812346072324	8412.469003864
4	87075	29363.72067892371	8405.7827305139
4	87092	29377.671578024225	8414.3272402216
4	87119	29392.011655723186	8427.950305839
4	87260	29444.343679835456	8471.4891668198
4	87286	29449.209523341266	8461.8061345936
4	87295	29456.875519100021	8442.1561696311
4	87396	29492.244355663613	8467.9545819799
4	87407	29493.430445280427	8467.517568337
4	87419	29495.443964965742	8467.0196092667
4	87452	29499.748425263858	8461.0805135578
4	87464	29504.038747929363	8463.0564252555
4	87505	29514.939323814716	8468.6254669096
4	87518	29518.228858969648	8471.6737252513
4	87532	29522.183708581362	8471.2882219172
4	87617	29548.584590619631	8489.9164756999
4	87637	29554.47438422019	8494.0400945828
4	87642	29556.437183863311	8493.2375321776
4	87647	29559.99717315328	8494.3046679069
4	87654	29564.667157503888	8498.4546314325
4	87683	29570.9005859238	8497.5675647306
4	87691	29576.615782965476	8500.4518419238
4	87704	29580.706278771151	8503.1484334079
4	87728	29585.576405829165	8501.3978374096
4	87735	29588.667823079042	8501.0596567047
4	87742	29592.559334991184	8496.2428471397
4	87752	29593.431618664173	8490.734359164
4	87757	29595.080800577112	8492.3469089701
4	87762	29596.97987279272	8488.8113239903
4	87785	29607.111216827313	8498.1027610475
4	87888	29647.203856667193	8536.839565705
4	87962	29672.776660235758	8553.7793094001
4	88002	29690.89880238475	8568.4087502571
4	88015	29694.662833590505	8569.7137169187
4	88020	29694.720630950712	8569.2532809997
4	88025	29696.325810758407	8570.1852698989
4	88036	29702.75360811351	8575.2356893562
4	88046	29709.389441740125	8577.1130625494
4	88076	29720.622890333589	8583.026860043
4	88082	29721.260355350764	8579.0250272572
4	88087	29721.31194081253	8574.5432106898
4	88102	29726.560591421865	8553.6488659108
4	88243	29778.075479108798	8601.8353511962
4	88261	29780.344325222439	8603.7963735258
4	88497	29858.06242820362	8680.8892365335
4	88502	29858.467325252741	8680.7798157301
4	88508	29860.846800194608	8679.4414022322
4	88514	29861.842622686136	8673.2821604321
4	88519	29863.095742560401	8672.0719026719
4	88526	29867.955648192143	8673.6346156711
4	88533	29870.293845919645	8669.3369268332
4	88543	29872.092443288516	8670.4237595154
4	88551	29876.590573697902	8669.8787661395
4	88563	29879.980983004832	8671.6429768829
4	88579	29888.234532796128	8679.4415977433
4	88589	29890.811005799227	8679.7989868652
4	88599	29894.737870050701	8681.2380263388
4	88611	29898.403951444905	8684.2278561295
4	88616	29899.690466604345	8684.4597611033
4	88624	29903.160103606867	8679.070119255
4	88633	29908.288205854557	8682.7649275276
4	88677	29916.5583397067	8686.1723564273
4	88688	29919.268194982388	8681.5152168722
4	88732	29928.267753704387	8672.1299600327
4	88749	29934.03739117591	8637.6025792945
4	88794	29949.498186169576	8648.1233997843
4	88841	29966.833570645473	8663.4361319599
4	88846	29966.96337647207	8654.6254565988
4	88853	29970.277757727563	8652.5446457893
4	88890	29989.093025662023	8670.0950290082

