version 2
run Third-n2-5-20191016-17:04:37-8748
attr configname Third-n2
attr datetime 20191016-17:04:37
attr experiment Third-n2
attr inifile omnetpp.ini
attr iterationvars ""
attr iterationvarsf ""
attr measurement ""
attr network org.omnetpp.queueing.Pizza
attr processid 8748
attr repetition 5
attr replication ""
attr resultdir results
attr runnumber 5
attr seedset 5
param **.PS.maxInventoriedPS 2
param **.U1.interArrivalTime exponential(4s)
param **.U2.interArrivalTime exponential(6s)
param **.PS.serviceTimeForInventoryU1 exponential(1.4s)
param **.PS.serviceTimeForInventoryU2 exponential(1.4s)
param **.PS.serviceTimeDirectU1 exponential(1.8s)
param **.PS.serviceTimeDirectU2 exponential(1.8s)
param **.PS.probabilityProducing 0.8
param **.CS.serviceTimeU1 exponential(2.3s)
param **.CS.serviceTimeU2 exponential(2.3s)

vector 0 Pizza.EntryQueueU1 queueLength:vector ETV
attr interpolationmode sample-hold
attr title "queue length, vector"
vector 1 Pizza.CS queueLength:vector ETV
attr interpolationmode sample-hold
attr title "queue length, vector"
vector 2 Pizza.EntryQueueU2 queueLength:vector ETV
attr interpolationmode sample-hold
attr title "queue length, vector"
vector 3 Pizza.sink lifeTime:vector ETV
attr interpolationmode none
attr title "lifetime of arrived jobs, vector"
attr unit s
vector 4 Pizza.sink lifeTimeU2:vector ETV
attr interpolationmode none
attr title "lifetime of arrived jobs, vector"
attr unit s
vector 5 Pizza.sink lifeTimeU1:vector ETV
attr interpolationmode none
attr title "lifetime of arrived jobs, vector"
attr unit s
0	0	0	0
0	5	1.004079910768	1
0	7	1.930391765611	2
0	11	3.738964224312	3
0	13	4.115420356294	4
0	14	5.085741223811	3
0	23	7.676024802913	2
0	29	7.89978038264	3
0	31	9.010920726223	4
0	32	9.014990806969	3
0	37	9.285347587155	2
0	41	9.700294096866	3
0	46	10.613696182537	4
0	47	10.669439534402	3
0	53	12.227785160034	2
0	62	12.998362231253	1
0	67	13.356418996829	0
0	78	14.57762298523	1
0	79	15.668107295413	0
0	119	32.19563468494	1
0	121	35.903230552729	0
0	135	40.371410035002	1
0	137	41.151802771496	2
0	142	46.623362179855	1
0	147	47.123619499608	0
0	156	47.874088126162	1
0	158	48.236088213679	2
0	162	49.726027675057	3
0	172	52.298252028604	4
0	173	52.691966603312	3
0	180	59.083908037201	4
0	181	60.170444047902	3
0	188	60.522063993497	4
0	191	65.776846494751	3
0	197	67.698544089412	2
0	202	68.091442112744	1
0	207	68.572320606096	0
0	211	71.007832758912	1
0	216	72.260297736672	0
0	222	72.827364565456	1
0	225	74.952967787572	0
0	247	85.326048375683	1
0	248	86.514703587251	0
0	256	87.26024622124	1
0	258	87.403407856352	2
0	260	87.587535927187	1
0	267	89.261165183701	2
0	269	89.732295701867	3
0	271	91.515475035323	4
0	272	92.10478520669	3
0	278	94.118424688589	4
0	280	95.71895475665	3
0	286	97.010689715401	4
0	287	99.426147304767	3
0	293	99.869918168676	4
0	295	100.089486577551	5
0	297	101.381328024104	4
0	303	102.209409030501	5
0	305	102.43129961016	6
0	307	103.652599880704	5
0	316	106.444404556601	4
0	322	107.945009867805	5
0	325	109.94700517689	4
0	333	115.210319995875	3
0	338	117.697301356268	2
0	343	118.012458336327	1
0	349	120.229463904787	2
0	357	126.106997057456	3
0	358	126.902412075497	2
0	366	130.943646456059	3
0	368	131.290475165519	4
0	370	135.432185749143	5
0	371	135.872263501581	4
0	378	136.528041165029	5
0	381	140.147496758838	4
0	388	140.48680843288	5
0	389	141.250556311521	4
0	394	141.956309221929	3
0	401	143.452061291927	4
0	404	143.807694204336	5
0	405	145.176602681469	4
0	411	146.146170232037	3
0	420	150.404099864087	4
0	421	152.0929467949	3
0	427	153.96438843187	4
0	428	157.755508691399	3
0	435	159.887773292601	2
0	441	161.664958173803	3
0	443	161.782553234038	4
0	449	164.683229013624	3
0	457	166.090942215414	4
0	458	166.683515825643	3
0	462	168.651856987457	4
0	465	169.525221555866	3
0	472	172.877181875923	4
0	473	173.73785343481	3
0	479	174.691877774072	4
0	482	177.151777861637	5
0	485	177.685160050353	6
0	486	177.804774074772	5
0	495	182.828422123684	6
0	496	185.278905355389	5
0	501	185.824391030701	4
0	506	186.241821355922	3
0	511	188.992822895909	2
0	517	194.412604409407	3
0	519	195.398753559151	4
0	524	199.326836554459	3
0	532	201.538095736537	4
0	533	202.553059759696	3
0	542	204.431870858201	2
0	548	204.769369027675	1
0	555	207.326633330158	2
0	556	207.384200921559	1
0	561	208.660250733909	0
0	572	211.005230319639	1
0	579	215.0367986323	0
0	591	216.195279399209	1
0	592	216.305262801163	0
0	608	219.906742426887	1
0	610	219.958467717043	2
0	612	221.37846273272	3
0	614	222.102832755427	4
0	619	223.981193593284	3
0	625	224.966099668513	2
0	633	226.114172978096	3
0	634	226.486176082257	2
0	641	226.719260801558	3
0	643	231.642959077364	2
0	652	233.579859082561	3
0	654	234.316551318317	4
0	657	236.850484513126	3
0	662	236.91512472373	2
0	667	237.375720254532	1
0	673	240.760773333579	2
0	678	243.003271497892	3
0	681	244.9921482894	2
0	687	247.430746513443	1
0	694	248.632942806152	0
0	709	251.024040074257	1
0	711	252.445368670898	0
0	717	252.685294723729	1
0	719	254.89343632394	0
0	735	265.710305919159	1
0	738	269.685347469597	0
0	762	275.541413212215	1
0	765	280.250413895227	0
0	777	284.120913131586	1
0	778	286.102319358592	0
0	789	289.127394463066	1
0	791	289.810552761028	2
0	795	294.72807382559	3
0	798	299.234704059091	2
0	805	301.281370523875	3
0	806	301.547831477164	2
0	812	306.708472914068	1
0	817	307.317719438831	0
0	826	312.439687086383	1
0	828	316.710598977309	2
0	831	317.922422367463	1
0	837	319.312686260367	0
0	879	329.714996450882	1
0	880	329.728890613318	0
0	889	331.144798583501	1
0	891	332.453139299759	2
0	901	333.928984335662	3
0	902	334.575484596758	2
0	907	334.645681926787	1
0	914	340.267688726537	0
0	923	341.027123748262	1
0	926	343.296217959347	2
0	928	346.79597475404	3
0	930	347.746434590021	4
0	931	347.751144005544	3
0	936	347.989482496237	2
0	941	348.593708735586	1
0	945	349.462357828147	2
0	947	349.567886668508	3
0	953	355.815941217258	4
0	957	363.654709907792	5
0	958	365.218234257043	4
0	965	366.798435563407	5
0	967	366.830063502851	6
0	968	366.925133045537	5
0	974	367.908423286173	4
0	982	368.672618836036	3
0	987	369.444788649653	2
0	992	369.642442821932	1
0	996	369.811612302525	2
0	998	370.181129369038	3
0	1000	375.264428155629	4
0	1006	380.842462286826	3
0	1012	381.656382438296	4
0	1014	383.069154635455	3
0	1024	386.419338177205	2
0	1031	386.769569386733	3
0	1033	387.179411594921	4
0	1034	387.943897676939	3
0	1042	390.005798889142	4
0	1044	391.001039547431	5
0	1048	392.941189417283	4
0	1053	393.44457319216	3
0	1059	397.2026306941	2
0	1064	397.372191442116	1
0	1069	398.649390742978	0
0	1073	399.747998079324	1
0	1076	402.575436403483	0
0	1084	404.606105221435	1
0	1085	404.823254334818	0
0	1091	405.796428023656	1
0	1095	406.873944732536	2
0	1097	409.344885169538	1
0	1103	414.112629940101	0
0	1122	418.015086964682	1
0	1125	418.763162541424	2
0	1126	419.504613816157	1
0	1131	419.941158396089	0
0	1142	425.491082947489	1
0	1145	430.829481651364	0
0	1151	432.107863170302	1
0	1152	432.823910223956	0
0	1158	434.297514701662	1
0	1162	436.364347102918	0
0	1170	437.835497028833	1
0	1172	438.49452107038	2
0	1174	439.616549171993	1
0	1187	443.706814871183	0
0	1199	444.173356428168	1
0	1201	445.062236482548	2
0	1202	445.914023075248	1
0	1207	445.981137269283	0
0	1214	447.406622848741	1
0	1219	449.731789859269	0
0	1228	455.038994934072	1
0	1229	455.151438322521	0
0	1235	455.983474819812	1
0	1241	460.174500201467	0
0	1250	461.548872652445	1
0	1251	462.088624393261	0
0	1259	463.221908744391	1
0	1261	464.387150132015	2
0	1262	467.769232681538	1
0	1270	470.142553134544	2
0	1272	472.695606218057	3
0	1275	474.311910014299	2
0	1280	478.21899545934	1
0	1286	478.852066199127	0
0	1301	483.584856591961	1
0	1303	484.384598957333	2
0	1305	486.746013298423	3
0	1306	487.14802827682	2
0	1312	487.659061578138	3
0	1313	487.95400499323	2
0	1318	488.005009748069	1
0	1323	488.623131404652	0
0	1329	489.513731674657	1
0	1330	490.081931463204	0
0	1336	492.103891901006	1
0	1338	492.44450358732	2
0	1340	493.06821556345	3
0	1344	494.710076579702	4
0	1346	495.434079049907	5
0	1348	495.744736129661	6
0	1352	499.192500413786	7
0	1354	499.245409106835	8
0	1357	503.167251347619	7
0	1365	506.189092788924	6
0	1375	507.99526472137	7
0	1376	510.389445802624	6
0	1382	511.465656357903	7
0	1384	511.643525266433	8
0	1386	512.882273872648	9
0	1387	513.384528855988	8
0	1392	515.646694934363	7
0	1397	517.16187744094	6
0	1405	518.772002326874	7
0	1407	520.859665386941	8
0	1408	520.935449584118	7
0	1413	521.47118240723	6
0	1418	521.954131191163	5
0	1423	522.444336676805	4
0	1429	525.137861680822	5
0	1431	526.15748992375	4
0	1436	526.377342504043	3
0	1443	528.667043324068	4
0	1445	529.218429117186	5
0	1449	529.313884149454	6
0	1450	529.608440128391	5
0	1455	529.617708885395	4
0	1459	530.492705200027	5
0	1464	532.011747792489	4
0	1472	536.431925644414	5
0	1473	537.605865709708	4
0	1479	537.909472594712	3
0	1484	537.921666462114	2
0	1492	540.284113258392	1
0	1498	540.897582273186	2
0	1502	543.147001690671	3
0	1505	543.862076120219	2
0	1511	547.112840241795	3
0	1513	550.8267415671	2
0	1523	556.324081996473	1
0	1528	557.538213168597	0
0	1535	558.971797818362	1
0	1536	560.897800484088	0
0	1550	563.540684287286	1
0	1551	565.349991560219	0
0	1557	565.829635286464	1
0	1559	568.688483115912	0
0	1590	571.448245082436	1
0	1593	572.454650784109	0
0	1623	578.52058766973	1
0	1626	579.887203900088	0
0	1632	580.466329220458	1
0	1639	583.911482358593	2
0	1640	583.954976623279	1
0	1646	584.594424762094	2
0	1648	584.926669349993	3
0	1652	590.252689456606	4
0	1653	590.256484586121	3
0	1659	593.156889349654	2
0	1666	594.06562464025	3
0	1671	599.422159857281	4
0	1673	601.862529619088	5
0	1674	603.1561572351	4
0	1680	605.508638126729	3
0	1686	606.932705884091	2
0	1691	607.152828875747	1
0	1696	607.34991291489	0
0	1704	611.291818684093	1
0	1706	612.266988850575	2
0	1708	612.856928883433	3
0	1711	613.497962532019	2
0	1715	613.625240822683	3
0	1721	615.545142871517	4
0	1724	617.077036166844	5
0	1725	617.407547784932	4
0	1734	618.870908622277	3
0	1740	618.899678387448	4
0	1741	620.161205215187	3
0	1746	620.860456896034	2
0	1750	621.466087588398	3
0	1754	625.647252620231	4
0	1757	625.869765003279	3
0	1761	626.378203377353	4
0	1763	631.099957042603	5
0	1765	632.310991927336	6
0	1767	632.450684480649	7
0	1773	634.317307208225	6
0	1779	634.848319932991	7
0	1781	635.667605529763	8
0	1784	639.37335856505	7
0	1791	642.364274097424	8
0	1793	642.383130957553	9
0	1796	644.117229046537	10
0	1797	647.673448294865	9
0	1803	648.921416128156	10
0	1804	649.092746666426	9
0	1812	652.429798244914	10
0	1814	653.153758342159	11
0	1817	656.162293114609	10
0	1823	656.989400678615	9
0	1828	658.254910407227	8
0	1838	660.174156658799	9
0	1840	661.256200397631	10
0	1841	661.616298519082	9
0	1847	661.75645040435	10
0	1849	662.856539909858	9
0	1858	664.167108034979	10
0	1860	665.508968548325	11
0	1862	667.516656427709	12
0	1863	668.948193030202	11
0	1871	675.540890024615	10
0	1877	678.186808994484	9
0	1883	679.387392027261	10
0	1885	679.96884016927	11
0	1887	681.597185319365	10
0	1892	682.974603741349	9
0	1900	683.905520590508	10
0	1901	685.345928031677	9
0	1907	686.562947568125	10
0	1911	691.003153057682	11
0	1912	691.278537076185	10
0	1926	697.467650393574	9
0	1931	698.413449966097	8
0	1935	700.412818836295	9
0	1942	701.583887970632	8
0	1948	703.669047273528	9
0	1955	704.746951926182	8
0	1963	705.491511325061	7
0	1968	705.680651879035	6
0	1974	706.247774332362	7
0	1975	706.359397666309	6
0	1981	706.831277381826	7
0	1989	709.883633563799	8
0	1992	712.037298267652	7
0	1998	713.679779655438	8
0	2000	714.088917170004	9
0	2001	715.160643859553	8
0	2007	718.233088406653	9
0	2008	719.177954912221	8
0	2012	719.259085735475	9
0	2018	720.478808757881	10
0	2021	723.224647712709	11
0	2024	726.346732501366	12
0	2026	730.583424295646	13
0	2027	731.111756746662	12
0	2034	731.680340496873	13
0	2035	731.970233875284	12
0	2041	732.833665381764	13
0	2042	732.946119107498	12
0	2047	733.31453972355	11
0	2051	733.341956704573	12
0	2057	735.199409330471	11
0	2067	738.751453994655	12
0	2070	739.677318472497	11
0	2075	740.156185110439	10
0	2079	740.662744820438	11
0	2084	741.344010453535	12
0	2085	741.898843602596	11
0	2090	742.437034169201	10
0	2096	746.180145778893	9
0	2102	749.065329039773	8
0	2109	751.190269386111	7
0	2119	752.887101795963	8
0	2121	753.247885332453	9
0	2122	753.302383677042	8
0	2128	755.326966123849	7
0	2134	757.535542586323	6
0	2144	762.365216890852	7
0	2147	762.928649496056	6
0	2153	764.19866043596	5
0	2160	765.828881737151	4
0	2167	767.853873228314	5
0	2169	768.242015253772	6
0	2171	772.0113103401	7
0	2173	772.181350814186	8
0	2174	773.629821494397	7
0	2184	778.156485667718	8
0	2186	778.651918684124	9
0	2188	779.031529411557	10
0	2189	783.064012923568	9
0	2196	784.839112247221	10
0	2197	785.263650586392	9
0	2205	786.582213655022	10
0	2209	789.722435844605	9
0	2215	790.270315418646	10
0	2216	790.619292945011	9
0	2222	791.532917697291	10
0	2223	792.025246281321	9
0	2229	795.232476001525	10
0	2235	798.860577601764	11
0	2237	799.225971322921	12
0	2239	799.526843217136	13
0	2240	799.739466608013	12
0	2248	805.275602013145	13
0	2250	805.630409958146	14
0	2251	806.779693833731	13
0	2257	808.563916801411	14
0	2262	812.572400469568	15
0	2264	813.369304823919	16
0	2269	817.168024617689	15
0	2274	817.280934663199	14
0	2279	819.485670341302	13
0	2292	823.925612811996	12
0	2298	824.100392636814	13
0	2300	824.822632521088	12
0	2307	830.249124540182	13
0	2308	830.362214441667	12
0	2315	830.755337926009	13
0	2317	830.864470178634	14
0	2318	831.920792991523	13
0	2325	835.394533189194	14
0	2327	836.167876963844	15
0	2328	836.344871126563	14
0	2334	839.080751304566	13
0	2340	840.270609084365	12
0	2346	840.618027004762	13
0	2348	841.178705644455	14
0	2350	841.582058403957	13
0	2356	842.687474882785	12
0	2362	843.813884274479	11
0	2369	844.561363660353	12
0	2370	844.579611977788	11
0	2376	844.594973937587	12
0	2379	844.864885413945	13
0	2382	845.9787660846	12
0	2387	846.577760594443	11
0	2393	848.890111368416	10
0	2398	850.554000716928	9
0	2410	855.414310262354	10
0	2411	855.983103411638	9
0	2418	856.689028011297	10
0	2419	857.357560266558	9
0	2425	858.087138537854	8
0	2431	862.143011679188	7
0	2436	862.145711065361	6
0	2442	864.456987254085	7
0	2443	864.857361694823	6
0	2448	865.943340984979	5
0	2454	867.221111205615	4
0	2460	867.825456172767	5
0	2461	867.843749384216	4
0	2466	869.352475024398	3
0	2470	869.905408918216	4
0	2473	872.091085181946	3
0	2481	872.721906028219	4
0	2482	873.873720634399	3
0	2489	877.568863821982	4
0	2491	880.332657627433	3
0	2496	881.688450647475	2
0	2504	883.488163722959	3
0	2508	885.160744860913	4
0	2514	886.220104714705	5
0	2516	886.463760494305	6
0	2517	886.496710868893	5
0	2523	887.210799686259	4
0	2529	887.698942417307	3
0	2536	889.305570692809	2
0	2542	889.600031523738	3
0	2548	894.147585786775	2
0	2558	896.081474431026	1
0	2564	896.830231320211	2
0	2565	897.841316057081	1
0	2569	898.191494915223	2
0	2571	898.394500567275	3
0	2576	902.612896435619	4
0	2577	903.068324982145	3
0	2582	903.504547531021	2
0	2589	904.374562667806	1
0	2596	914.909293642167	2
0	2598	916.820366244799	1
0	2603	918.060216440991	0
0	2626	927.189977448422	1
0	2633	930.91316183515	0
0	2647	936.70540214994	1
0	2651	937.999058047343	2
0	2656	941.232801053946	3
0	2657	941.235079677139	2
0	2663	941.752038688128	3
0	2666	942.123307166996	4
0	2667	942.59307217068	3
0	2673	945.703187776444	2
0	2679	945.723076360066	3
0	2681	946.000948151418	4
0	2686	950.630762582803	3
0	2692	950.805557734973	4
0	2693	951.914396226082	3
0	2699	952.20854194185	4
0	2701	953.482668681168	3
0	2714	956.88888735224	2
0	2720	956.949289503202	3
0	2721	959.34500127644	2
0	2727	959.99051748767	3
0	2730	967.248945080364	2
0	2735	970.618944894458	1
0	2740	971.172804791921	0
0	2746	973.159752275466	1
0	2748	973.484915171951	2
0	2751	974.127055772716	3
0	2753	974.45423500885	4
0	2755	974.793451947968	5
0	2757	976.514561718675	4
0	2763	986.00210802433	3
0	2770	986.335458789713	4
0	2773	986.897386871273	3
0	2779	988.413902111939	4
0	2783	993.731189138206	3
0	2788	994.661918103009	2
0	2793	995.906572266894	1
0	2801	998.719843015236	2
0	2803	998.926862075683	3
0	2804	999.647274290206	2
0	2809	1002.295940944688	1
0	2816	1002.464186179759	0
0	2867	1019.557084317034	1
0	2868	1020.326473520236	0
0	2880	1023.997917962052	1
0	2883	1026.047339628316	0
0	2890	1027.055342412745	1
0	2891	1027.055647132829	0
0	2907	1030.590338364071	1
0	2908	1030.647054574051	0
0	2920	1033.770079403037	1
0	2922	1035.110433498344	2
0	2923	1035.199929767341	1
0	2929	1035.390736065264	2
0	2933	1039.357205663376	1
0	2938	1039.633186445452	0
0	2946	1042.538679511686	1
0	2947	1043.34228901934	0
0	2958	1043.90284940704	1
0	2959	1044.131984338686	0
0	2965	1048.464158256375	1
0	2968	1052.215721190685	0
0	2974	1053.126262751241	1
0	2975	1056.165495397473	0
0	2981	1056.618957392029	1
0	2985	1057.456089136888	0
0	3007	1061.965300872374	1
0	3008	1062.203861684081	0
0	3018	1063.299900328753	1
0	3023	1064.351672497472	0
0	3038	1069.355444511384	1
0	3039	1070.987634835634	0
0	3045	1072.192796154636	1
0	3046	1073.024874104763	0
0	3068	1079.483239490429	1
0	3069	1080.869258884239	0
0	3082	1087.631855137456	1
0	3084	1088.24577688742	2
0	3086	1088.377764876555	3
0	3088	1088.531610949291	2
0	3094	1089.561731858413	1
0	3103	1090.818423732969	0
0	3119	1093.735344649968	1
0	3121	1099.145101148238	2
0	3124	1100.385244109636	1
0	3131	1103.851518655949	2
0	3132	1103.906200745348	1
0	3138	1104.279647588475	2
0	3139	1104.637787981994	1
0	3144	1105.162294460114	0
0	3161	1112.460480931363	1
0	3162	1113.929980312213	0
0	3192	1127.806838815181	1
0	3195	1129.45019669714	0
0	3204	1132.307609745228	1
0	3206	1133.111316413207	2
0	3212	1134.547155441909	3
0	3217	1136.457494136947	2
0	3222	1137.761218980065	1
0	3226	1138.435613847604	2
0	3230	1138.588109939128	3
0	3232	1138.994769842211	4
0	3236	1139.461864231692	5
0	3240	1142.27808546744	6
0	3243	1143.033508821824	5
0	3253	1143.433744936155	6
0	3262	1148.69990987856	7
0	3265	1151.47252843675	6
0	3271	1154.758436201713	5
0	3276	1155.987453974989	4
0	3281	1156.091272778198	3
0	3289	1158.386377172098	4
0	3291	1160.212074918831	3
0	3299	1163.932348100152	4
0	3302	1164.845176764189	3
0	3307	1165.559563477982	2
0	3313	1166.278098074518	3
0	3314	1173.161109831397	2
0	3318	1173.451252937272	3
0	3322	1173.776225642221	4
0	3324	1175.395413089866	3
0	3334	1177.399400705776	4
0	3335	1177.606833320699	3
0	3340	1177.688347756867	2
0	3345	1177.711901862104	1
0	3352	1180.125696850855	2
0	3354	1180.616130758414	1
0	3362	1182.280619142238	0
0	3374	1185.112844319101	1
0	3376	1185.194102286201	2
0	3378	1187.731444280368	1
0	3384	1187.918734497845	2
0	3389	1189.982636922772	3
0	3391	1190.161578323153	4
0	3392	1192.360691945592	3
0	3397	1195.418179682614	2
0	3404	1199.060864433587	1
0	3412	1203.078096190241	2
0	3413	1203.238064632625	1
0	3419	1203.867227933616	2
0	3420	1205.514194267116	1
0	3426	1205.813599498368	2
0	3428	1207.522798738136	1
0	3433	1208.3363415358	0
0	3447	1215.15560246667	1
0	3448	1215.645972508836	0
0	3455	1217.308924549205	1
0	3456	1217.513244928846	0
0	3491	1228.255153778453	1
0	3495	1229.750283004221	2
0	3502	1238.646929478336	1
0	3508	1240.533456615908	2
0	3509	1240.592387989389	1
0	3514	1242.522896599109	0
0	3518	1243.742857383842	1
0	3520	1244.413339172516	2
0	3526	1246.608959530256	3
0	3532	1248.025532578222	2
0	3537	1248.133998919238	1
0	3544	1249.742003792372	0
0	3558	1256.946527342685	1
0	3560	1257.171697840723	2
0	3561	1258.125515653067	1
0	3571	1260.548096411106	2
0	3572	1263.86857234653	1
0	3579	1264.93228531216	2
0	3580	1267.743930822509	1
0	3586	1268.020263872995	2
0	3588	1269.237964185961	1
0	3594	1270.101568296276	0
0	3606	1272.125834245037	1
0	3607	1272.305155481202	0
0	3627	1279.68186265054	1
0	3629	1282.197129190495	2
0	3630	1282.352307568922	1
0	3635	1282.971538586357	0
0	3646	1285.962548911141	1
0	3647	1286.152421273458	0
0	3651	1286.203547452823	1
0	3657	1290.662724696212	0
0	3673	1300.113696112212	1
0	3675	1301.055253302557	2
0	3677	1302.980142660161	3
0	3681	1305.497681609347	4
0	3683	1306.71289418138	5
0	3684	1307.754626202886	4
0	3690	1309.436419809961	3
0	3696	1310.757727472109	2
0	3701	1310.95848212459	1
0	3707	1312.1712544722	2
0	3715	1315.627428571879	3
0	3718	1317.025200171472	4
0	3720	1319.219960931935	5
0	3724	1326.610346431091	6
0	3725	1327.71844823928	5
0	3730	1327.852615562389	4
0	3738	1329.464179055912	5
0	3740	1330.31965865913	6
0	3741	1331.446661922102	5
0	3748	1335.062725893122	6
0	3750	1335.656316071629	7
0	3751	1336.740630586563	6
0	3757	1337.52193949411	7
0	3758	1337.914623727977	6
0	3765	1338.05123392099	7
0	3767	1338.880119752676	8
0	3769	1341.246441490412	7
0	3775	1341.416176340617	8
0	3776	1341.766064909673	7
0	3781	1345.68775610428	6
0	3790	1350.718968215204	7
0	3792	1352.24534082035	8
0	3793	1353.66983032729	7
0	3799	1355.137642907587	6
0	3804	1355.250706825784	5
0	3809	1358.240893613659	4
0	3818	1360.07877461705	5
0	3820	1361.098492320382	6
0	3824	1363.936757378181	5
0	3829	1365.802125677553	4
0	3834	1365.881008648436	3
0	3841	1366.770978295578	2
0	3845	1368.121501712899	3
0	3851	1370.315474886205	4
0	3852	1371.018821681288	3
0	3857	1373.038478554494	2
0	3869	1376.826195869785	3
0	3870	1377.056020202114	2
0	3875	1378.105100015216	1
0	3882	1379.018928350548	0
0	3902	1386.615063100984	1
0	3904	1387.843447254933	2
0	3905	1388.258378270762	1
0	3911	1390.794221400298	0
0	3920	1392.998344994505	1
0	3923	1397.526311321228	0
0	3932	1399.405248042811	1
0	3936	1399.842516175124	2
0	3939	1400.199576564019	3
0	3940	1400.777518210455	2
0	3946	1402.409302869014	3
0	3952	1403.616478729641	2
0	3959	1405.02338801094	1
0	3964	1405.052858533544	0
0	3976	1408.030425071524	1
0	3978	1412.827721738818	0
0	4001	1420.15224555759	1
0	4004	1422.115945724641	0
0	4015	1424.754736935382	1
0	4017	1425.171498950175	2
0	4018	1425.182006886512	1
0	4026	1427.336812427124	2
0	4027	1427.367892960581	1
0	4033	1431.29329518292	0
0	4039	1432.076257432546	1
0	4040	1432.178182672424	0
0	4047	1434.557160637688	1
0	4049	1435.969849215979	2
0	4051	1436.062392056044	3
0	4053	1437.533261865448	4
0	4054	1438.549586507712	3
0	4060	1439.769336919702	4
0	4061	1441.823230401836	3
0	4068	1443.64549465368	2
0	4073	1443.739765153077	1
0	4079	1444.146601171575	2
0	4083	1445.674788314059	3
0	4089	1448.696282936017	4
0	4091	1449.933509084046	5
0	4093	1450.108835175472	6
0	4097	1458.642471927475	7
0	4099	1460.046525414929	8
0	4101	1463.472794579265	9
0	4102	1464.226773926827	8
0	4108	1464.415986300273	9
0	4110	1468.609556309161	8
0	4115	1471.310998046585	7
0	4122	1477.5190555942	8
0	4124	1478.496685057795	9
0	4130	1482.741988050443	10
0	4132	1483.143565338465	11
0	4133	1484.829796257753	10
0	4138	1485.426981068494	9
0	4147	1487.413557661014	8
0	4152	1489.105591178292	7
0	4158	1490.097936003742	6
0	4164	1491.187827752963	7
0	4167	1494.317916986836	6
0	4171	1495.501283717436	7
0	4175	1497.874228549684	8
0	4181	1502.577466652845	9
0	4182	1504.894769315319	8
0	4188	1505.585570231493	7
0	4193	1506.571626513419	6
0	4199	1508.041444534797	7
0	4202	1509.532550770915	6
0	4207	1509.933082754204	5
0	4215	1511.230328757967	6
0	4220	1513.619701696281	5
0	4228	1516.385901272171	4
0	4233	1517.650081528686	3
0	4238	1518.730898024685	2
0	4242	1518.917863295789	3
0	4246	1521.911919892317	4
0	4249	1523.875573893588	3
0	4255	1525.013958135028	2
0	4260	1526.685472074205	1
0	4267	1531.112062498634	0
0	4287	1536.685816879754	1
0	4290	1539.333539434407	0
0	4320	1556.459619681154	1
0	4323	1558.861735131685	0
0	4373	1580.962995087602	1
0	4379	1582.281890490709	2
0	4384	1586.866747918379	3
0	4389	1588.263569303252	4
0	4390	1588.539336816271	3
0	4398	1591.16913776583	2
0	4403	1591.220655158142	1
0	4409	1592.534515460104	0
0	4431	1598.441820059882	1
0	4432	1599.876183210939	0
0	4441	1603.51356788842	1
0	4443	1605.694453400769	2
0	4444	1607.727507801883	1
0	4451	1612.16133632362	2
0	4453	1612.177649658707	3
0	4454	1613.128179228817	2
0	4465	1616.726990536221	3
0	4467	1617.053128434998	4
0	4468	1617.840121471899	3
0	4473	1618.961329170035	2
0	4478	1620.89730401818	1
0	4483	1621.550230178109	0
0	4487	1623.392087140406	1
0	4493	1630.87634903423	2
0	4495	1631.954141141628	3
0	4498	1634.420171967579	2
0	4504	1635.026673282384	1
0	4509	1635.347764936087	0
0	4515	1635.66840761743	1
0	4516	1637.107528615647	0
0	4531	1642.362908051542	1
0	4533	1647.124199025788	0
0	4550	1650.34197496241	1
0	4551	1653.503534214945	0
0	4583	1666.037373591844	1
0	4586	1667.030572942177	0
0	4595	1672.52599978761	1
0	4598	1677.431512751197	0
0	4606	1681.454612135716	1
0	4607	1682.750594631953	0
0	4615	1685.117152495474	1
0	4620	1686.622120208606	0
0	4629	1687.430951639654	1
0	4631	1691.110705463324	2
0	4634	1693.983401175364	1
0	4639	1694.186086183246	0
0	4651	1694.975215751964	1
0	4653	1696.922581374049	0
0	4688	1707.845813474831	1
0	4689	1709.022710073924	0
0	4697	1710.021749267879	1
0	4699	1710.662122804078	2
0	4700	1711.306013885373	1
0	4707	1712.045309950107	0
0	4711	1712.260444552094	1
0	4720	1719.075494432332	0
0	4741	1725.077413793721	1
0	4744	1726.154309779232	0
0	4752	1726.95127958063	1
0	4757	1730.782339758398	0
0	4763	1731.416685479759	1
0	4766	1734.337128631043	2
0	4768	1734.397290099245	3
0	4769	1736.778134190982	2
0	4775	1736.860255800153	3
0	4776	1736.956757318117	2
0	4784	1737.840889990698	1
0	4789	1740.996561935653	0
0	4800	1744.115203597296	1
0	4801	1745.226967900165	0
0	4819	1753.946410152781	1
0	4822	1754.767124394752	0
0	4831	1759.445352195688	1
0	4833	1759.845186617943	2
0	4837	1763.192236861018	1
0	4843	1766.158837079908	0
0	4853	1769.925921452747	1
0	4855	1773.414991124192	2
0	4857	1775.439513587115	3
0	4862	1776.45081793003	2
0	4867	1776.47412221047	1
0	4874	1779.410415408718	2
0	4877	1780.265488184871	1
0	4883	1781.021438050273	2
0	4885	1781.192361346518	3
0	4887	1782.57124123303	2
0	4893	1783.31021748916	3
0	4897	1786.284427430874	4
0	4901	1789.559101598758	3
0	4907	1789.782055032782	4
0	4908	1790.677847957058	3
0	4913	1794.116739378701	2
0	4919	1795.102779221876	3
0	4922	1796.22310183454	2
0	4928	1798.44645715119	1
0	4934	1798.862034311956	2
0	4935	1799.939956695646	1
0	4942	1805.092892119993	0
0	4948	1805.990048136998	1
0	4949	1806.158048896455	0
0	4957	1807.4384801183	1
0	4959	1808.257440386619	2
0	4960	1809.799511685803	1
0	4964	1811.203428818481	2
0	4966	1812.558844981061	3
0	4969	1813.624499967703	2
0	4974	1813.993273261585	1
0	4984	1821.655377003341	2
0	4985	1822.239350331713	1
0	4991	1824.381018044615	0
0	5004	1826.541480176835	1
0	5011	1832.881518115693	2
0	5013	1833.736568393052	3
0	5014	1834.420046120484	2
0	5020	1838.767801250578	1
0	5026	1839.317438193231	0
0	5033	1840.564876908656	1
0	5037	1843.532848819975	2
0	5039	1845.583314293946	3
0	5042	1846.116576411979	2
0	5048	1846.426369197244	3
0	5049	1847.540679615582	2
0	5054	1849.329106047587	1
0	5060	1850.989149498852	2
0	5061	1851.90311394422	1
0	5067	1854.640211035694	0
0	5076	1855.748104783732	1
0	5077	1857.079608377647	0
0	5083	1857.242490891379	1
0	5087	1858.226502157791	2
0	5088	1858.454898644213	1
0	5093	1858.816785713877	0
0	5125	1868.615321217666	1
0	5126	1871.95274825845	0
0	5142	1872.50400878836	1
0	5143	1873.033583366254	0
0	5153	1874.42249593136	1
0	5156	1876.296683776648	0
0	5162	1876.446684079954	1
0	5163	1876.932639042808	0
0	5183	1884.642093875298	1
0	5185	1885.122211818236	0
0	5191	1886.396180376857	1
0	5194	1886.735868615052	2
0	5197	1887.702315507947	1
0	5205	1893.214722834056	0
0	5215	1895.366240323297	1
0	5218	1896.845040876333	0
0	5233	1899.534050519775	1
0	5238	1903.730501109126	0
0	5245	1906.746296251993	1
0	5246	1908.292450272139	0
0	5269	1914.903954338909	1
0	5273	1915.5529737584	2
0	5275	1916.038844911246	3
0	5277	1916.789621211525	2
0	5283	1916.973988712699	3
0	5286	1917.825693161204	4
0	5288	1919.249508716032	5
0	5290	1920.775373247615	4
0	5299	1921.725922425585	5
0	5300	1925.682652812715	4
0	5305	1925.867926909074	3
0	5310	1926.013392432022	2
0	5314	1927.737872605487	3
0	5319	1930.151035789963	4
0	5320	1930.270472327298	3
0	5324	1930.639957436156	4
0	5327	1931.840594009618	3
0	5333	1932.488134903673	4
0	5338	1939.620832412835	3
0	5345	1941.892844027563	2
0	5351	1941.978642752531	1
0	5356	1942.420643051893	0
0	5362	1945.196063194163	1
0	5364	1946.213254007996	2
0	5365	1947.262099116947	1
0	5373	1953.690861731155	2
0	5375	1955.140652365213	3
0	5377	1955.709922224723	4
0	5378	1955.886141130258	3
0	5385	1961.174392446616	2
0	5391	1962.295825170527	1
0	5398	1963.240610592082	2
0	5400	1966.964421378923	3
0	5401	1967.788135158765	2
0	5407	1969.590530695213	3
0	5410	1969.933397910953	2
0	5416	1971.1777977777	1
0	5421	1971.280718039012	0
0	5447	1978.180087659319	1
0	5451	1980.480390212801	2
0	5455	1982.107650462148	3
0	5456	1983.119744402797	2
0	5466	1987.053578714661	1
0	5472	1987.215519672122	2
0	5474	1987.805625370205	1
0	5479	1987.824787347742	0
0	5499	1992.435014628748	1
0	5505	1999.558742637614	2
0	5507	2001.024019482577	3
0	5508	2001.177815491201	2
0	5514	2004.097897820049	1
0	5521	2004.394336914749	0
0	5543	2010.268068099901	1
0	5548	2014.182129529448	0
0	5568	2019.660902052945	1
0	5574	2024.503699055946	0
0	5588	2028.312326759959	1
0	5590	2029.952690772186	2
0	5591	2031.105231736614	1
0	5597	2032.264721096689	0
0	5609	2038.582554512189	1
0	5611	2039.549966268745	2
0	5612	2039.86660321796	1
0	5618	2040.061673771816	2
0	5619	2041.293649089723	1
0	5624	2045.477862412911	0
0	5631	2046.464886376069	1
0	5635	2049.818447237215	2
0	5636	2050.248540788298	1
0	5641	2050.286575169277	0
0	5645	2050.489833913598	1
0	5647	2051.656619373832	2
0	5653	2052.846411810007	1
0	5659	2053.039428831321	0
0	5676	2057.805856768954	1
0	5677	2058.065203085404	0
0	5690	2060.033155336303	1
0	5692	2060.481708499794	2
0	5698	2064.165629747135	3
0	5705	2066.523440147999	4
0	5709	2069.778483204391	3
0	5714	2070.062650252528	2
0	5720	2071.43043753788	3
0	5721	2072.228766561073	2
0	5726	2073.193780784014	1
0	5743	2082.009772667845	2
0	5745	2083.352332161958	1
0	5750	2083.861297776001	0
0	5756	2084.002705735531	1
0	5758	2084.205302543222	2
0	5760	2084.590320038657	3
0	5763	2087.192205456939	2
0	5769	2087.710659281167	1
0	5774	2089.063721007908	0
0	5778	2091.287140351821	1
0	5781	2095.13087915414	0
0	5785	2095.426638352656	1
0	5790	2098.668561300472	0
0	5821	2114.296595218854	1
0	5824	2114.774900298685	0
0	5830	2114.805742445389	1
0	5835	2115.337734815158	2
0	5836	2115.501488958623	1
0	5842	2115.863889564484	0
0	5855	2117.539090571289	1
0	5860	2128.226175802683	0
0	5866	2128.406999672321	1
0	5868	2128.880676645646	2
0	5870	2129.132884223873	1
0	5875	2129.293088658213	0
0	5884	2130.39827892919	1
0	5887	2131.033837939434	0
0	5897	2133.07682445592	1
0	5898	2133.395339150122	0
0	5902	2135.504047862526	1
0	5904	2136.892413385671	2
0	5910	2138.886075065158	1
0	5915	2139.261749903946	0
0	5929	2143.126974943729	1
0	5931	2143.361753986217	2
0	5933	2143.531436861261	3
0	5935	2143.692766347	4
0	5937	2144.155923662092	5
0	5940	2145.019227061637	4
0	5946	2151.936550794746	5
0	5955	2162.496934299029	4
0	5960	2162.634890002051	3
0	5966	2163.192562997516	2
0	5973	2164.426788299032	3
0	5976	2164.668675084643	4
0	5977	2164.833407491394	3
0	5982	2165.541599874496	2
0	5987	2168.559651349541	1
0	5991	2170.312309827728	2
0	5997	2172.465975619118	3
0	5999	2172.765027207226	4
0	6000	2172.901780290787	3
0	6005	2174.107594446479	2
0	6010	2174.219498687398	1
0	6016	2175.739267350014	2
0	6018	2176.755449002588	1
0	6024	2177.110777346004	2
0	6025	2177.918575583969	1
0	6032	2181.936384444877	0
0	6060	2187.188774760645	1
0	6063	2190.594596326057	0
0	6076	2192.296743181381	1
0	6077	2195.359053317065	0
0	6104	2202.616177760875	1
0	6105	2204.516262374723	0
0	6111	2204.682467766095	1
0	6116	2207.13972773698	2
0	6117	2207.746441428264	1
0	6123	2209.697109104621	0
0	6130	2210.393958162418	1
0	6132	2210.766937838035	2
0	6133	2211.106363557978	1
0	6140	2213.102484732026	0
0	6149	2217.398937476319	1
0	6151	2218.071776828922	2
0	6153	2219.265411217536	3
0	6154	2219.325257938595	2
0	6159	2219.939042503156	1
0	6165	2221.165206734469	0
0	6188	2225.056263651392	1
0	6191	2228.936561611523	0
0	6218	2235.567192749011	1
0	6219	2240.148643839547	0
0	6225	2240.459039746167	1
0	6231	2243.857446354959	0
0	6254	2252.008227497371	1
0	6258	2254.109978971319	2
0	6259	2256.251989927753	1
0	6267	2257.274123072787	2
0	6272	2259.025547836736	3
0	6273	2259.795955171009	2
0	6287	2269.922482596522	1
0	6293	2271.508621191887	2
0	6295	2272.533814434337	1
0	6300	2272.803566769499	0
0	6309	2280.677256064366	1
0	6315	2284.207529616506	2
0	6316	2285.576780462403	1
0	6324	2287.059795802369	0
0	6342	2295.184523435445	1
0	6343	2298.102519638567	0
0	6349	2298.707967820384	1
0	6351	2300.695193065272	0
0	6365	2302.269543748177	1
0	6367	2302.491709758536	2
0	6370	2305.086565495396	1
0	6378	2305.857445979255	2
0	6379	2305.963035794581	1
0	6385	2306.411295743713	2
0	6386	2306.590100104573	1
0	6390	2307.026342040316	2
0	6400	2314.566121913745	3
0	6401	2314.77635820679	2
0	6407	2316.622644152168	1
0	6413	2316.772173485731	2
0	6415	2317.678921450052	3
0	6416	2318.830758503985	2
0	6422	2319.027877704434	1
0	6429	2322.36432048107	0
0	6445	2327.586361514618	1
0	6448	2328.547073621586	0
0	6454	2329.802937598972	1
0	6456	2330.183917942656	2
0	6460	2330.449762337563	3
0	6465	2332.763424848291	4
0	6471	2337.282259892953	3
0	6476	2338.813944046112	2
0	6481	2339.812672260193	1
0	6487	2343.279996265493	0
0	6515	2357.110571417588	1
0	6518	2357.482604317907	0
0	6530	2358.913685835603	1
0	6531	2360.077388074536	0
0	6546	2364.266511833509	1
0	6548	2365.474193153851	0
0	6564	2367.396794168767	1
0	6566	2367.547269484458	2
0	6567	2368.064863861767	1
0	6574	2369.039048765228	2
0	6575	2369.728028527802	1
0	6583	2371.712657225537	2
0	6584	2372.034723856876	1
0	6590	2372.243260030452	2
0	6592	2374.358178216287	1
0	6598	2375.822127529326	0
0	6604	2375.87780575632	1
0	6606	2376.872727733558	0
0	6612	2378.60704757286	1
0	6614	2378.688610076755	2
0	6620	2383.45051234816	3
0	6621	2383.482807371394	2
0	6627	2387.782999756724	1
0	6635	2389.89330947242	0
0	6647	2391.161498596605	1
0	6649	2391.327142097023	2
0	6650	2394.13267387292	1
0	6655	2396.595121579935	0
0	6668	2400.711155429369	1
0	6670	2401.073264451748	0
0	6676	2401.911052849571	1
0	6677	2402.356622667651	0
0	6689	2406.155122002564	1
0	6691	2406.539179519276	2
0	6697	2409.024363334643	1
0	6703	2410.709112721137	2
0	6705	2410.840793065776	3
0	6706	2411.582824937146	2
0	6711	2411.654208330502	1
0	6716	2412.657865488929	0
0	6731	2416.361847546478	1
0	6733	2417.020039791345	2
0	6737	2418.916828561179	3
0	6740	2421.892314743543	4
0	6743	2423.356934503575	3
0	6749	2424.855130326988	2
0	6761	2427.342608305651	1
0	6767	2428.723729475676	2
0	6768	2429.529412990788	1
0	6773	2429.607403787522	0
0	6803	2437.726867523779	1
0	6804	2439.885655085512	0
0	6811	2441.39436976627	1
0	6813	2442.590690196931	2
0	6814	2444.619343693606	1
0	6819	2444.825186363375	0
0	6826	2445.79547822753	1
0	6827	2445.971807554717	0
0	6835	2448.178059579911	1
0	6839	2451.138760394014	2
0	6841	2453.582497151972	3
0	6842	2460.286828213013	2
0	6848	2461.082927196148	1
0	6855	2461.498925771328	2
0	6857	2462.06738901681	1
0	6865	2464.367315480095	0
0	6871	2464.830397104801	1
0	6872	2465.051162499554	0
0	6890	2467.831682126058	1
0	6893	2468.667807004726	2
0	6895	2468.872779064007	3
0	6899	2470.494390144921	4
0	6900	2473.501227086557	3
0	6906	2474.79715416396	4
0	6908	2477.476283035996	3
0	6914	2479.613201636965	2
0	6922	2482.473139383278	1
0	6928	2482.674541029256	2
0	6929	2483.134323370527	1
0	6934	2483.86258843388	0
0	6938	2484.511922133677	1
0	6940	2484.613676738436	2
0	6944	2487.287980650777	1
0	6949	2487.299122237911	0
0	6986	2498.816591178978	1
0	6988	2499.260682138027	2
0	6989	2501.295954236194	1
0	6998	2501.897916966865	2
0	7000	2502.149523956574	3
0	7001	2503.350676701169	2
0	7007	2504.217533144236	1
0	7013	2506.203824680529	0
0	7019	2506.711283015285	1
0	7020	2506.900008691041	0
0	7029	2508.310169954908	1
0	7034	2509.846506298967	2
0	7036	2512.29810803425	1
0	7042	2512.866954880633	2
0	7044	2514.761901267198	3
0	7045	2515.027242007427	2
0	7056	2523.425780432846	1
0	7062	2524.127928224417	2
0	7063	2525.454366432087	1
0	7071	2527.26952236047	2
0	7075	2528.519931996226	3
0	7077	2529.286739845928	2
0	7082	2529.723073761895	1
0	7089	2533.0814787133	0
0	7095	2533.469660725044	1
0	7097	2537.250148699874	0
0	7104	2538.20898925768	1
0	7107	2539.716565090613	0
0	7119	2541.959993769625	1
0	7121	2543.325355347474	0
0	7144	2549.924197239971	1
0	7146	2550.041406723506	2
0	7147	2550.61696328107	1
0	7154	2552.207905703719	2
0	7155	2552.894727414208	1
0	7161	2553.46448707251	2
0	7163	2561.539905711854	1
0	7170	2565.008294613533	2
0	7173	2569.602975361088	1
0	7178	2570.506025865438	0
0	7194	2575.094996284044	1
0	7197	2577.286858483942	0
0	7209	2581.858232377437	1
0	7213	2584.728776306448	2
0	7214	2586.461373924442	1
0	7223	2592.640612510162	0
0	7247	2597.150090719832	1
0	7255	2599.771931925435	2
0	7258	2601.651027767129	1
0	7265	2602.817794658217	2
0	7267	2603.708736693748	3
0	7269	2603.996237097663	4
0	7271	2604.153509378372	5
0	7273	2611.452227931021	6
0	7274	2615.062910927702	5
0	7280	2615.212505133047	6
0	7282	2616.621951942283	7
0	7284	2617.453673890307	8
0	7288	2618.866793972394	7
0	7294	2619.099211302687	8
0	7295	2619.165105966416	7
0	7302	2619.963945499763	6
0	7307	2620.990684583762	5
0	7313	2623.167158435387	6
0	7318	2626.66705351401	5
0	7324	2627.101832478563	6
0	7325	2628.078061663046	5
0	7330	2629.933396866193	4
0	7340	2634.384965516698	3
0	7347	2634.500968287534	4
0	7351	2635.310109491381	5
0	7352	2636.038628562125	4
0	7357	2636.308072078466	3
0	7364	2639.212125157501	2
0	7371	2640.175270535394	1
0	7376	2641.159190599451	0
0	7394	2644.664113031013	1
0	7397	2646.222795991868	0
0	7403	2646.737612855474	1
0	7404	2647.956118087913	0
0	7431	2657.840966606886	1
0	7432	2658.938541341318	0
0	7455	2668.425166990944	1
0	7457	2670.417802159954	2
0	7459	2671.55309924063	3
0	7465	2675.820610657076	4
0	7466	2677.271918068717	3
0	7471	2677.282365073053	2
0	7480	2682.064195974572	3
0	7482	2683.159201874998	2
0	7488	2684.255405590803	1
0	7493	2686.341088395947	0
0	7517	2697.030750254451	1
0	7526	2701.51039759358	2
0	7530	2701.661559018318	3
0	7532	2704.41480065781	4
0	7534	2705.280668985904	5
0	7538	2707.249635043538	6
0	7540	2711.620890883974	7
0	7542	2711.62670875808	8
0	7549	2716.830382282948	7
0	7556	2717.803987290021	8
0	7558	2717.905986369102	9
0	7560	2718.124051863282	10
0	7562	2722.058034775625	11
0	7564	2722.286608775726	12
0	7566	2724.350076654973	13
0	7572	2730.173822526096	14
0	7574	2730.699431857939	15
0	7577	2735.504385062926	14
0	7583	2736.408361661165	15
0	7584	2737.78519263073	14
0	7590	2739.045490553772	13
0	7595	2739.435063749153	12
0	7599	2739.740111850288	13
0	7601	2740.024276652189	14
0	7607	2744.775587400841	13
0	7613	2744.995762107153	14
0	7614	2745.031318437337	13
0	7623	2748.524508086945	14
0	7624	2750.536161499729	13
0	7632	2752.764771027846	14
0	7633	2753.253887837387	13
0	7639	2753.657691460036	14
0	7642	2755.126605936137	15
0	7643	2756.549550215791	14
0	7648	2757.39770622063	13
0	7656	2759.572094089042	14
0	7658	2760.773143716624	15
0	7662	2761.511625099392	16
0	7664	2761.647557278552	17
0	7665	2762.579028390775	16
0	7672	2766.531476803802	15
0	7676	2766.538763604483	16
0	7680	2771.288372904697	15
0	7689	2772.411564630759	14
0	7694	2772.899067119107	13
0	7702	2774.423600018002	12
0	7708	2775.918230546124	13
0	7710	2776.114634653725	12
0	7718	2779.210655417669	13
0	7719	2779.898004506079	12
0	7725	2780.861263522435	13
0	7726	2781.533183448562	12
0	7732	2782.349209739199	13
0	7734	2783.485315144465	14
0	7735	2785.628568712028	13
0	7741	2788.61218949328	14
0	7743	2789.067246059358	15
0	7749	2789.38736894011	16
0	7752	2794.072089701666	15
0	7761	2796.503380277593	16
0	7762	2797.067574821582	15
0	7768	2798.361294624434	14
0	7773	2798.453736104682	13
0	7780	2799.847957766632	14
0	7784	2802.451626116894	15
0	7785	2803.212211161319	14
0	7792	2803.825832582311	13
0	7807	2808.458145523704	14
0	7809	2809.296677627521	13
0	7815	2810.336564997026	12
0	7821	2811.00386707397	13
0	7823	2812.054708489847	14
0	7825	2812.729670104743	15
0	7827	2814.220569324533	14
0	7832	2815.184944018364	13
0	7838	2815.490003877257	14
0	7840	2819.690939037032	13
0	7847	2820.725865113752	14
0	7849	2821.96206298943	15
0	7850	2822.115594346506	14
0	7855	2826.256352562363	13
0	7861	2828.231334326993	14
0	7864	2830.06070292037	13
0	7868	2830.325088469982	14
0	7870	2832.086552247216	15
0	7873	2833.255561423259	14
0	7884	2835.909613108103	15
0	7888	2839.181821550871	14
0	7894	2841.184035328143	13
0	7900	2841.611583261041	14
0	7905	2842.165784786676	15
0	7906	2842.792808264397	14
0	7912	2844.829399993885	15
0	7914	2845.30988965526	14
0	7919	2846.992664567351	13
0	7925	2847.298682057806	14
0	7926	2850.076581466095	13
0	7930	2850.671675445605	14
0	7934	2854.556469049718	13
0	7941	2858.647510191551	12
0	7952	2863.872002221102	13
0	7954	2864.272254134437	14
0	7955	2865.979369890702	13
0	7960	2866.291107176613	12
0	7965	2866.29214599198	11
0	7972	2870.453798100962	12
0	7974	2873.299963359903	11
0	7983	2877.441856692047	12
0	7992	2884.267554210246	11
0	7997	2885.644099973819	10
0	8003	2886.204204013794	11
0	8004	2886.289989725083	10
0	8013	2890.552809360875	9
0	8019	2892.632438361085	8
0	8024	2893.585012777911	7
0	8030	2893.589421444496	8
0	8032	2893.931039133772	9
0	8034	2893.969750943274	10
0	8037	2895.806581311067	9
0	8041	2896.845209620138	10
0	8047	2897.933630295683	9
0	8052	2898.029088361562	8
0	8060	2901.517288659397	7
0	8066	2903.63938902762	6
0	8075	2905.69217372728	7
0	8077	2905.820167208379	6
0	8083	2907.884898285846	5
0	8091	2914.900460239793	4
0	8096	2916.332331724829	3
0	8101	2917.992451155757	2
0	8105	2918.407118986141	3
0	8115	2925.094125198846	4
0	8117	2927.152353198592	5
0	8119	2928.031447076165	6
0	8120	2929.181476651929	5
0	8125	2930.055186329955	4
0	8131	2932.02249383411	3
0	8137	2933.489074024942	2
0	8142	2933.543901264608	1
0	8147	2935.005199612653	0
0	8180	2946.692006059445	1
0	8183	2947.974656253546	0
0	8193	2949.26372059541	1
0	8197	2952.504544726158	0
0	8208	2953.010751901913	1
0	8211	2953.245669934919	2
0	8213	2953.43211029671	3
0	8216	2954.126500222588	2
0	8221	2954.350113722594	1
0	8226	2954.925643785443	0
0	8230	2955.334779710503	1
0	8233	2955.602131852335	0
0	8255	2963.449463938384	1
0	8257	2963.665586133226	2
0	8260	2966.881144313668	1
0	8266	2967.672654553269	0
0	8272	2968.097443559048	1
0	8275	2968.658404923568	2
0	8279	2971.383752766856	3
0	8285	2973.232757498426	4
0	8286	2973.559598117943	3
0	8291	2974.779408101893	2
0	8296	2975.326104324741	1
0	8301	2976.570201496924	0
0	8318	2981.558154447697	1
0	8320	2981.756480375755	2
0	8321	2982.269098681343	1
0	8329	2983.559053509456	0
0	8336	2984.753399230124	1
0	8341	2988.825100726338	0
0	8349	2991.56132502883	1
0	8350	2991.818783600624	0
0	8397	3005.58495205659	1
0	8401	3006.477690651575	2
0	8402	3007.149649259588	1
0	8407	3007.889943630955	0
0	8413	3009.10464349518	1
0	8417	3010.614233571275	2
0	8419	3010.644806282815	3
0	8420	3010.654676790445	2
0	8425	3011.111483799335	1
0	8432	3011.67626722511	2
0	8436	3015.173502664109	1
0	8444	3020.052851516163	0
0	8451	3021.488690573498	1
0	8453	3023.590974403195	2
0	8454	3024.205106960833	1
0	8460	3026.041121425206	0
0	8473	3028.85728552577	1
0	8475	3030.605735551904	0
0	8484	3031.288549450702	1
0	8493	3036.719051711447	0
0	8515	3045.015871889493	1
0	8522	3046.581006890034	0
0	8529	3048.535727078987	1
0	8530	3048.901209523355	0
0	8552	3058.017047060362	1
0	8555	3059.701247463321	0
0	8567	3064.423013666745	1
0	8568	3065.124624982269	0
0	8590	3070.280876047497	1
0	8593	3070.750170694785	0
0	8599	3071.041137477145	1
0	8600	3072.05398112231	0
0	8609	3072.653023011815	1
0	8616	3078.572824075442	2
0	8617	3086.087942294177	1
0	8623	3086.330559941716	0
0	8649	3095.625909080434	1
0	8651	3095.788586379839	2
0	8652	3096.382238524623	1
0	8658	3096.764646215562	0
0	8665	3099.327134375795	1
0	8667	3100.754528935779	0
0	8702	3110.768396244548	1
0	8705	3111.853487295121	2
0	8706	3112.679765774621	1
0	8712	3112.734199309398	2
0	8715	3115.652771952143	1
0	8721	3116.950036070669	0
0	8741	3120.606990078681	1
0	8745	3122.131934174775	2
0	8749	3125.577360246315	3
0	8750	3126.031689897799	2
0	8755	3126.420559995024	1
0	8760	3127.208413397238	0
0	8771	3132.09258445306	1
0	8773	3132.903864036763	2
0	8775	3135.209016693864	3
0	8785	3145.858618472698	2
0	8792	3146.097127465771	1
0	8800	3147.402494161092	2
0	8806	3150.354446312475	3
0	8807	3152.218631173025	2
0	8812	3152.431980964457	1
0	8818	3152.938564670569	2
0	8821	3153.002473498726	3
0	8823	3153.593614029627	4
0	8826	3155.175297486542	5
0	8831	3157.568339917206	4
0	8836	3158.160615388594	3
0	8843	3160.231258475066	2
0	8847	3163.249967053562	3
0	8851	3168.860955943594	4
0	8857	3175.754161456271	5
0	8859	3177.138497868243	6
0	8860	3177.179455367089	5
0	8868	3180.371383209671	6
0	8870	3182.082474458753	7
0	8872	3186.245367155248	8
0	8873	3187.08313038026	7
0	8882	3190.495789073382	8
0	8883	3190.776606369466	7
0	8889	3191.522762903366	6
0	8895	3195.787170236135	5
0	8900	3197.842711156851	4
0	8905	3197.939342083879	3
0	8912	3204.351875898526	2
0	8921	3207.486060261284	3
0	8925	3208.122082694416	2
0	8930	3209.501649728985	1
0	8937	3210.188435683379	0
0	8954	3212.786166727548	1
0	8958	3215.932931108117	2
0	8960	3216.264571709329	3
0	8962	3219.634007298175	4
0	8963	3219.838024752473	3
0	8969	3220.409725336515	2
0	8974	3220.697750788116	1
0	8981	3221.56802983553	2
0	8984	3224.241131215367	3
0	8986	3225.870946829052	4
0	8987	3227.703490005703	3
0	8993	3228.745875308243	4
0	8994	3229.660756633965	3
0	8999	3231.075036880132	2
0	9005	3234.416609323212	1
0	9010	3234.580817376822	0
0	9016	3237.325557427325	1
0	9018	3237.347845509631	2
0	9024	3240.888253485877	3
0	9026	3241.272515571541	4
0	9027	3242.157965821587	3
0	9034	3243.019604612736	4
0	9035	3243.259007791045	3
0	9041	3243.710298246275	2
0	9047	3246.361029879326	1
0	9054	3248.925345836986	0
0	9061	3251.35584048873	1
0	9062	3251.552568239852	0
0	9084	3258.275823756639	1
0	9085	3258.491621234827	0
0	9115	3271.280949563973	1
0	9116	3272.141148447359	0
0	9134	3274.590446078986	1
0	9135	3275.892653941083	0
0	9143	3276.814580047818	1
0	9145	3277.03452716082	2
0	9148	3279.198409701896	1
0	9156	3279.840280672363	2
0	9158	3280.172615858014	1
0	9165	3280.336386259657	2
0	9167	3282.158242229045	1
0	9173	3286.900117847741	0
0	9192	3291.238287032635	1
0	9194	3292.535926750545	0
0	9201	3294.592277387526	1
0	9203	3296.11420234846	0
0	9225	3298.102190305909	1
0	9226	3300.455027543697	0
0	9232	3301.107960284375	1
0	9237	3304.758083690988	2
0	9238	3305.264398501798	1
0	9247	3307.474466719128	2
0	9248	3308.915542474383	1
0	9254	3309.855542628198	0
0	9260	3309.980455414877	1
0	9261	3312.072410231212	0
0	9269	3314.708961250813	1
0	9271	3315.681198372763	0
0	9293	3322.653636245342	1
0	9296	3322.79050497308	2
0	9297	3323.315294007106	1
0	9305	3325.161695435657	2
0	9306	3325.999633930908	1
0	9312	3327.501347151805	0
0	9319	3329.208475537177	1
0	9320	3329.534987672441	0
0	9326	3330.768429534386	1
0	9327	3330.81892457811	0
0	9345	3334.820833263626	1
0	9348	3335.470981562545	2
0	9350	3336.352315559299	3
0	9352	3336.726343370152	4
0	9357	3340.820365011641	5
0	9358	3342.024966921369	4
0	9364	3345.490003806042	3
0	9371	3345.747905434064	4
0	9372	3346.668302634908	3
0	9378	3347.311362197997	4
0	9381	3348.605178758461	5
0	9385	3350.394375546425	6
0	9386	3350.938890770625	5
0	9393	3351.447625425611	6
0	9395	3351.507592253155	7
0	9399	3352.775328405434	8
0	9400	3353.095726015209	7
0	9405	3354.021620874109	6
0	9412	3355.846416670625	7
0	9414	3357.904248361275	6
0	9419	3358.291481268434	5
0	9426	3359.576356356393	6
0	9428	3360.136777092741	7
0	9431	3360.269937634152	8
0	9435	3364.545808029606	9
0	9436	3371.087759232236	8
0	9442	3373.895199628795	7
0	9449	3375.809510266596	8
0	9453	3378.419982130225	7
0	9459	3380.433589047065	6
0	9464	3381.253693653218	5
0	9470	3382.001763856359	6
0	9471	3382.861678480731	5
0	9475	3384.228339007514	6
0	9479	3386.051514995705	5
0	9491	3391.344822570847	6
0	9492	3391.909661917947	5
0	9498	3392.222047464836	4
0	9506	3394.150359826441	5
0	9507	3394.852928636815	4
0	9513	3397.562113436324	5
0	9515	3399.396597117512	6
0	9516	3400.034264522114	5
0	9523	3402.768510695911	6
0	9526	3404.691372619831	7
0	9528	3407.048344038022	8
0	9529	3408.840353498311	7
0	9535	3409.592240727224	6
0	9540	3409.950039419891	5
0	9546	3410.831000039266	6
0	9548	3413.133406551551	7
0	9550	3414.187511127653	8
0	9551	3414.34046231497	7
0	9558	3418.804721605237	6
0	9567	3422.808431836977	7
0	9568	3423.465435491349	6
0	9573	3424.013625043425	5
0	9580	3425.489562605679	4
0	9587	3427.347413221898	5
0	9590	3431.07827997225	4
0	9596	3433.161638540653	3
0	9602	3435.22235647579	2
0	9608	3436.476090646575	1
0	9613	3436.893994489213	0
0	9626	3439.547094352303	1
0	9629	3440.064215650607	2
0	9632	3440.828955921887	1
0	9637	3440.917558181746	0
0	9643	3441.801869053529	1
0	9644	3441.988032045385	0
0	9648	3442.111981397888	1
0	9650	3443.146561483625	2
0	9656	3446.710477876026	1
0	9662	3447.105784923346	2
0	9664	3447.186057612739	3
0	9666	3447.936846055974	4
0	9667	3448.475472102975	3
0	9675	3449.629448793119	4
0	9680	3453.071495676398	3
0	9687	3454.091652813386	4
0	9689	3454.966032468601	3
0	9694	3455.457845113585	2
0	9699	3456.71458076901	1
0	9703	3461.702888126772	2
0	9710	3467.14544494652	3
0	9712	3470.105259058008	4
0	9713	3472.986606434092	3
0	9719	3476.096861111743	2
0	9725	3476.765290931129	3
0	9726	3479.203793740443	2
0	9735	3484.080163100956	1
0	9741	3486.019171940588	2
0	9746	3486.590840448648	3
0	9747	3487.456417545665	2
0	9752	3488.897384632081	1
0	9757	3489.264878113247	0
0	9765	3492.897367980837	1
0	9771	3496.556953606687	2
0	9773	3496.921349517381	3
0	9775	3498.590932570191	4
0	9777	3499.130031754376	5
0	9778	3499.428678879245	4
0	9784	3502.002849146406	3
0	9790	3503.247610084159	4
0	9791	3504.221842841587	3
0	9799	3510.509422771433	4
0	9800	3511.809550978552	3
0	9805	3511.872302381521	2
0	9812	3514.986515182269	1
0	9817	3516.959592172162	0
0	9828	3517.199566444941	1
0	9831	3522.551823496573	0
0	9854	3529.590891994007	1
0	9856	3530.770617890962	2
0	9857	3530.96761395983	1
0	9862	3533.295868058928	0
0	9872	3540.591004084418	1
0	9873	3540.763849843968	0
0	9887	3542.210790597347	1
0	9894	3545.339899896321	2
0	9895	3545.770084708513	1
0	9901	3548.999790454583	0
0	9916	3551.331289634458	1
0	9919	3558.590869077383	0
0	9925	3558.713055376513	1
0	9926	3558.752380659577	0
0	9933	3559.067779753347	1
0	9934	3559.117218960228	0
0	9945	3562.186747257336	1
0	9946	3562.321554443414	0
0	9950	3562.401616356325	1
0	9964	3576.985779763881	2
0	9965	3577.998047444496	1
0	9970	3580.0807558522	0
0	9987	3581.415660145984	1
0	9989	3584.673079073194	0
0	9996	3592.179761171216	1
0	9997	3593.750796529811	0
0	10006	3594.588922241565	1
0	10010	3594.691938814205	2
0	10011	3594.961302649999	1
0	10018	3596.692064292667	2
0	10020	3597.015469199695	3
0	10021	3597.165783947364	2
0	10026	3597.461586708829	1
0	10031	3598.014956525712	0
0	10041	3605.879718918014	1
0	10049	3607.501431285005	2
0	10050	3609.881958397491	1
0	10057	3610.889848258733	2
0	10058	3611.080791152926	1
0	10067	3614.911885555426	0
0	10076	3618.139893723664	1
0	10081	3621.483119171553	0
0	10103	3631.868817820438	1
0	10113	3637.305668028664	2
0	10115	3638.430995261463	3
0	10116	3639.988026142792	2
0	10122	3640.540218834443	3
0	10123	3641.346876290472	2
0	10131	3644.138145249661	3
0	10132	3644.181819526055	2
0	10144	3648.624322276857	3
0	10145	3648.769009127134	2
0	10150	3651.218789860264	1
0	10156	3653.16787687734	2
0	10165	3662.815236261789	1
0	10170	3663.191027021002	0
0	10193	3670.154783321272	1
0	10196	3671.866854189843	0
0	10210	3676.023126624909	1
0	10214	3678.279454326896	0
0	10220	3678.372851621448	1
0	10223	3679.416325773358	2
0	10224	3680.011474653236	1
0	10231	3681.745044061357	2
0	10236	3682.261541852792	1
0	10242	3685.736558108152	0
0	10253	3687.402863670432	1
0	10255	3687.729304703303	2
0	10257	3688.271258153457	3
0	10261	3690.731267962509	4
0	10262	3690.973534837383	3
0	10272	3692.355850095771	4
0	10273	3692.86753827804	3
0	10279	3693.736687181196	4
0	10280	3694.534811777775	3
0	10286	3696.949475094193	4
0	10288	3698.181095028921	3
0	10295	3699.455952355219	2
0	10299	3699.917313381597	3
0	10301	3699.974566123571	4
0	10306	3701.918874288066	3
0	10311	3701.96703942466	2
0	10318	3703.336814073102	3
0	10321	3705.619720742052	2
0	10326	3706.620661368845	1
0	10331	3707.441572349871	0
0	10338	3709.314120774736	1
0	10340	3710.289121871131	2
0	10341	3710.404705666767	1
0	10347	3712.209850271079	0
0	10360	3712.763185264857	1
0	10363	3714.787663093348	2
0	10364	3714.818398480393	1
0	10370	3715.004676596513	2
0	10372	3716.006260684166	1
0	10378	3716.372390085187	0
0	10389	3720.743402812398	1
0	10394	3723.775547503119	0
0	10403	3724.68590338796	1
0	10405	3725.217883386804	2
0	10407	3726.930293525104	3
0	10409	3730.679805334617	4
0	10410	3731.737464761513	3
0	10416	3732.703389636851	4
0	10417	3733.128302583034	3
0	10422	3733.809677942158	2
0	10429	3735.412692024574	1
0	10434	3736.813013550802	0
0	10442	3742.051723351353	1
0	10444	3742.963138899747	0
0	10456	3743.545809024155	1
0	10457	3743.873969443907	0
0	10467	3748.028449681406	1
0	10468	3748.197204272503	0
0	10477	3749.96050959115	1
0	10480	3750.670458645087	0
0	10493	3752.286601326446	1
0	10495	3753.235340072433	0
0	10517	3760.807370179338	1
0	10519	3761.065467313049	2
0	10522	3761.543050302848	1
0	10528	3763.344133271783	2
0	10530	3764.917821589685	3
0	10533	3767.314864484238	4
0	10534	3767.628391640164	3
0	10541	3771.189626113034	2
0	10549	3772.464215240201	3
0	10550	3774.958634335673	2
0	10560	3778.562916324503	1
0	10565	3779.231858951355	0
0	10592	3784.767928235928	1
0	10594	3785.638268744461	0
0	10600	3786.558596055558	1
0	10605	3788.644265204212	2
0	10607	3789.076231873613	1
0	10613	3792.084418790462	0
0	10622	3794.86493769315	1
0	10623	3798.400470673021	0
0	10664	3811.237947348519	1
0	10668	3813.241232452094	0
0	10685	3818.768038221239	1
0	10687	3821.159300702332	2
0	10690	3824.307957640945	1
0	10695	3824.439501162938	0
0	10705	3826.556666951365	1
0	10706	3828.456695184212	0
0	10720	3832.303327919962	1
0	10722	3832.55798685032	2
0	10724	3833.496333795838	3
0	10727	3834.836805494069	2
0	10733	3840.976825289244	1
0	10740	3844.082915739849	0
0	10746	3844.263501332444	1
0	10748	3844.944106312793	2
0	10753	3846.438676514433	1
0	10758	3846.949538721674	0
0	10771	3849.564716173587	1
0	10773	3849.629579682033	2
0	10774	3849.687630675029	1
0	10780	3851.432596423402	0
0	10809	3859.545592797388	1
0	10815	3863.797434424377	0
0	10826	3869.957072816203	1
0	10828	3872.892967336024	2
0	10834	3875.473618499588	1
0	10840	3876.544528934279	2
0	10841	3876.892148428661	1
0	10848	3877.575702920676	2
0	10850	3878.989207722416	1
0	10856	3879.32755022323	0
0	10865	3881.364164948613	1
0	10867	3881.505064092727	2
0	10869	3882.514265602934	3
0	10871	3887.237016659251	4
0	10873	3887.417073915236	5
0	10877	3890.55219710305	6
0	10878	3891.142846363073	5
0	10889	3894.10404299142	4
0	10895	3895.138933523829	5
0	10897	3895.875791784832	6
0	10899	3900.705142460422	5
0	10905	3900.99455005309	6
0	10907	3901.267940548089	7
0	10910	3901.829812280322	6
0	10917	3903.184797723704	5
0	10927	3906.868769322667	6
0	10928	3906.887294564126	5
0	10934	3908.921716852105	6
0	10938	3910.253963349883	5
0	10945	3914.441051838874	6
0	10947	3915.224583597978	7
0	10950	3919.916092582586	6
0	10960	3924.640604232044	7
0	10961	3924.860472934749	6
0	10968	3927.138299673163	7
0	10969	3929.180206902873	6
0	10974	3932.872483731081	5
0	10980	3933.335499967151	4
0	10985	3934.579428825769	3
0	10992	3938.622196843667	2
0	10996	3939.804132237651	3
0	11002	3941.352964960482	2
0	11010	3944.037203486578	1
0	11016	3944.311897250186	2
0	11017	3944.814143468966	1
0	11022	3945.087877470975	0
0	11026	3947.935237015847	1
0	11028	3950.582599354323	2
0	11032	3955.535791119994	1
0	11038	3956.210178652987	2
0	11039	3958.620042396898	1
0	11043	3961.460726445115	2
0	11047	3964.074127847867	1
0	11054	3964.839811916311	2
0	11056	3966.695733957094	1
0	11067	3973.949965931622	2
0	11068	3975.127310879041	1
0	11076	3975.77735755183	0
0	11082	3975.930723881084	1
0	11085	3979.251789250532	2
0	11086	3979.828986833894	1
0	11092	3980.428406724959	2
0	11094	3980.761382878358	3
0	11095	3981.829695062105	2
0	11100	3982.766181986643	1
0	11108	3984.925178439269	0
0	11121	3992.191025470748	1
0	11123	3992.605905867243	2
0	11126	3994.415259887586	1
0	11137	3996.673387840951	2
0	11138	3997.307780621771	1
0	11144	3997.432676974943	0
0	11154	4000.400778853186	1
0	11155	4006.289277038211	0
0	11161	4006.466617547665	1
0	11164	4008.409241163785	0
0	11184	4015.910062753304	1
0	11185	4019.078751823496	0
0	11193	4020.102017325052	1
0	11196	4021.127020069127	0
0	11217	4026.515067149298	1
0	11220	4029.219426302076	0
0	11230	4030.294160538139	1
0	11236	4034.650727607804	2
0	11237	4035.13101360774	1
0	11244	4036.250978508911	2
0	11246	4036.66916235619	3
0	11248	4037.296840596782	4
0	11252	4039.725790505769	5
0	11253	4040.104850658917	4
0	11261	4041.415810989017	3
0	11266	4041.429258826824	2
0	11272	4043.962928880689	3
0	11277	4044.419095829874	4
0	11281	4048.463703180898	3
0	11288	4048.776994295456	2
0	11294	4049.598943925215	1
0	11300	4051.934471454813	0
0	11315	4053.474109710968	1
0	11320	4055.967986599259	2
0	11326	4057.272315295921	3
0	11328	4060.415392762189	4
0	11329	4060.855701959802	3
0	11337	4062.304256273078	2
0	11344	4064.115990953375	1
0	11354	4068.660880214015	0
0	11369	4071.30528020791	1
0	11372	4071.984048220859	0
0	11378	4073.605108620699	1
0	11381	4074.993556115308	0
0	11394	4077.468708423415	1
0	11397	4080.381955830553	0
0	11403	4080.611178078723	1
0	11404	4080.623242545162	0
0	11410	4081.319129849587	1
0	11411	4082.387287078502	0
0	11422	4090.761290014091	1
0	11423	4091.122296258807	0
0	11427	4092.793048941174	1
0	11430	4094.959875972604	0
0	11434	4097.652589919101	1
0	11438	4101.226917981135	2
0	11443	4103.467513980658	1
0	11449	4103.622451698974	0
0	11463	4107.452113785815	1
0	11465	4108.679095597427	0
0	11471	4109.433985500481	1
0	11475	4110.37522444537	0
0	11489	4112.69090639017	1
0	11491	4112.885274676053	0
0	11525	4126.101067383004	1
0	11526	4126.567071780287	0
0	11535	4129.454610798287	1
0	11537	4129.47313650745	2
0	11543	4134.654414179974	1
0	11549	4134.670262085837	2
0	11551	4136.533469262016	1
0	11556	4136.937554006525	0
0	11563	4137.349024555734	1
0	11565	4137.60540438545	0
0	11588	4143.159505845127	1
0	11591	4144.319319962305	0
0	11609	4147.975595034844	1
0	11612	4150.991196936089	0
0	11618	4151.048690455159	1
0	11619	4151.149568660997	0
0	11629	4153.807456313364	1
0	11632	4154.303061788623	0
0	11641	4155.532571615473	1
0	11646	4157.354015374611	2
0	11648	4157.488820962768	3
0	11649	4157.504569604599	2
0	11654	4158.97833983524	1
0	11663	4164.725900417739	0
0	11689	4176.828296598394	1
0	11691	4177.817370344098	2
0	11698	4182.705393088538	1
0	11705	4184.875682120662	2
0	11707	4186.446384672863	3
0	11709	4187.749973973196	4
0	11711	4188.911266919738	5
0	11712	4190.588488296138	4
0	11717	4190.987498718702	3
0	11722	4191.616640872553	2
0	11728	4193.215405158651	1
0	11734	4193.960714394263	2
0	11737	4194.349479954739	3
0	11739	4194.6262300565	4
0	11741	4195.050356774241	5
0	11742	4195.2710748567	4
0	11751	4197.877249730536	3
0	11757	4197.976774996755	2
0	11763	4199.479946673827	1
0	11770	4200.981078581114	0
0	11776	4201.372214349681	1
0	11778	4201.712744385836	0
0	11782	4202.43132200153	1
0	11788	4203.233764450391	2
0	11795	4207.494049865351	1
0	11802	4207.868332149006	2
0	11806	4209.217782990951	3
0	11808	4213.105382199581	4
0	11810	4213.899162823353	5
0	11811	4214.293938893714	4
0	11817	4215.961537443676	3
0	11824	4216.537670069715	4
0	11825	4217.095305449713	3
0	11831	4218.030927990985	4
0	11832	4218.67653076102	3
0	11837	4219.125219950258	2
0	11845	4219.532455117428	3
0	11847	4220.658150729156	4
0	11848	4221.594723501955	3
0	11854	4222.315952527591	4
0	11858	4228.057606470738	3
0	11864	4228.255697321745	4
0	11868	4230.954370372368	5
0	11870	4231.490861045377	6
0	11872	4231.871265224041	5
0	11880	4233.910189691925	6
0	11881	4234.701641892544	5
0	11888	4235.744997943416	6
0	11890	4236.747101589055	5
0	11899	4237.743313309116	6
0	11900	4240.625582099577	5
0	11906	4242.804439776117	4
0	11912	4243.569457278244	5
0	11913	4243.65434652499	4
0	11918	4245.099234225719	3
0	11922	4245.101086273861	4
0	11924	4246.977993667862	5
0	11929	4251.20228845742	6
0	11930	4251.22377747369	5
0	11938	4254.819325314773	6
0	11939	4254.909006031656	5
0	11945	4258.259169774888	6
0	11946	4258.540867102563	5
0	11952	4261.834415425058	4
0	11957	4262.264004971405	3
0	11966	4268.95989692269	4
0	11968	4270.847593165941	3
0	11973	4270.960295501563	2
0	11978	4271.01127915787	1
0	11986	4274.303608293734	2
0	11987	4274.361660815938	1
0	11995	4276.398941099114	2
0	11999	4280.390474077049	1
0	12006	4285.238793748751	0
0	12019	4286.326969717997	1
0	12023	4287.508770533114	0
0	12046	4291.577006243631	1
0	12051	4294.525615654604	0
0	12070	4301.657230731926	1
0	12076	4304.662192591906	2
0	12078	4305.727865684983	3
0	12079	4306.41751710817	2
0	12088	4307.315692307055	1
0	12094	4309.013227751044	0
0	12106	4309.423658127551	1
0	12110	4311.434181660437	2
0	12114	4312.394976023181	1
0	12122	4315.253775208301	2
0	12124	4315.94936533322	3
0	12125	4317.725428354633	2
0	12133	4319.780626094571	1
0	12140	4320.769179881546	2
0	12141	4321.976395680645	1
0	12147	4324.122155034079	2
0	12150	4327.403046576776	1
0	12157	4328.354267289669	0
0	12204	4340.322756737304	1
0	12206	4341.551610612697	2
0	12212	4345.863129970103	1
0	12218	4345.865838360336	2
0	12219	4346.732158525059	1
0	12225	4346.738562977841	2
0	12229	4348.197361156881	3
0	12230	4349.273679041559	2
0	12236	4349.297933809643	3
0	12239	4353.875256323796	4
0	12241	4354.257886019373	5
0	12243	4354.931910341346	6
0	12244	4355.574438463153	5
0	12254	4357.454789916362	4
0	12261	4366.144594127677	3
0	12266	4368.107329756328	2
0	12273	4372.783260647861	1
0	12280	4377.338551761398	0
0	12286	4377.989491587225	1
0	12288	4378.261898777475	2
0	12291	4383.85829877673	3
0	12293	4384.352655460677	4
0	12294	4384.396728982759	3
0	12306	4386.077509890257	4
0	12310	4388.294448040419	3
0	12316	4388.839822019844	4
0	12318	4390.261988206412	5
0	12320	4391.509017198668	4
0	12326	4391.925398056623	5
0	12327	4393.211451009079	4
0	12333	4394.548308224229	5
0	12334	4396.259378814762	4
0	12340	4396.80257875013	5
0	12344	4397.935518901613	6
0	12345	4399.205947572044	5
0	12349	4399.486593446177	6
0	12361	4407.63835966327	7
0	12362	4408.477549412363	6
0	12368	4409.527099017435	5
0	12373	4410.334052587425	4
0	12378	4410.871193873749	3
0	12385	4412.598894266743	2
0	12391	4412.983977703348	3
0	12392	4413.771701045017	2
0	12398	4415.383420158049	3
0	12399	4415.823421860988	2
0	12404	4416.614400171681	1
0	12410	4417.70424589452	0
0	12417	4420.107469464068	1
0	12422	4420.956781891456	2
0	12425	4424.49880106108	1
0	12431	4424.986233029847	0
0	12450	4428.181303795271	1
0	12453	4428.887937057913	2
0	12459	4432.509447956369	3
0	12461	4433.775085718666	4
0	12465	4439.509584092542	5
0	12466	4439.660741172346	4
0	12473	4442.034696397592	5
0	12474	4442.220939822633	4
0	12483	4446.508323700598	5
0	12484	4447.371215270821	4
0	12489	4447.511000002458	3
0	12497	4450.049994900442	2
0	12502	4451.443353936008	1
0	12509	4452.798658419471	0
0	12519	4456.272796820886	1
0	12521	4456.541729892376	2
0	12522	4457.247028235124	1
0	12526	4458.690937319119	2
0	12530	4461.898843593243	1
0	12535	4462.363031233618	0
0	12558	4472.042047068358	1
0	12562	4476.204055372921	0
0	12582	4483.451668350049	1
0	12586	4484.489196903231	0
0	12637	4497.222761346807	1
0	12639	4498.340388593921	2
0	12640	4500.845235099786	1
0	12646	4501.042620212082	2
0	12651	4503.95730313869	3
0	12652	4505.519900618226	2
0	12661	4512.637690829751	3
0	12662	4513.407494228049	2
0	12669	4517.619371234271	3
0	12670	4518.667875724724	2
0	12675	4519.778705094025	1
0	12683	4524.600979824452	2
0	12686	4526.636584386325	1
0	12691	4526.775881245118	0
0	12702	4528.103451005566	1
0	12704	4529.278135356817	0
0	12713	4529.48311036793	1
0	12720	4533.644108955747	0
0	12726	4534.845022709283	1
0	12734	4539.427334066517	0
0	12757	4545.182207169462	1
0	12759	4548.958892229788	2
0	12763	4551.346163826935	3
0	12764	4551.563754844125	2
0	12773	4556.711329801166	3
0	12774	4557.854706567827	2
0	12780	4559.317060748708	1
0	12786	4559.320398956394	2
0	12791	4560.94338864878	3
0	12793	4561.021353770127	4
0	12794	4563.428748799972	3
0	12802	4565.694306851269	4
0	12803	4566.010404103055	3
0	12810	4569.273584145162	2
0	12816	4571.456099845119	1
0	12821	4572.590237276832	0
0	12836	4581.529834528521	1
0	12837	4582.861921295583	0
0	12844	4584.863614937313	1
0	12846	4585.222992367614	2
0	12850	4592.640444630584	3
0	12851	4593.82923970806	2
0	12858	4594.32657553407	3
0	12859	4594.402039558642	2
0	12864	4595.033980756986	1
0	12869	4596.370258333159	0
0	12882	4597.579039800394	1
0	12883	4598.244806760233	0
0	12887	4599.098542862573	1
0	12899	4607.479676085572	0
0	12916	4610.614520290172	1
0	12918	4613.522659432125	2
0	12920	4614.115838008882	3
0	12921	4616.172826098677	2
0	12928	4617.799811131786	3
0	12931	4619.950978025382	2
0	12937	4620.244485326008	3
0	12938	4620.611116455289	2
0	12944	4621.882050447176	1
0	12951	4622.210574062107	0
0	12967	4625.821368803393	1
0	12970	4628.673357704322	0
0	12981	4632.08022779035	1
0	12986	4635.858451394011	0
0	12997	4637.781525188262	1
0	12998	4639.167050852112	0
0	13007	4640.763793630306	1
0	13008	4640.818192018155	0
0	13019	4643.265343348976	1
0	13026	4649.794621001731	2
0	13028	4650.126856343154	3
0	13029	4650.216490877071	2
0	13033	4650.382623173507	3
0	13036	4653.444223912015	2
0	13042	4659.446504980125	3
0	13044	4659.628020267485	4
0	13047	4666.152545374295	3
0	13054	4666.386380990999	2
0	13063	4668.209302791484	3
0	13064	4669.131215283417	2
0	13070	4670.251079650363	1
0	13076	4671.371221519429	2
0	13078	4672.307969404822	1
0	13083	4672.622492532333	0
0	13096	4674.524551910035	1
0	13101	4676.622065660616	0
0	13120	4683.695270338078	1
0	13121	4687.024446675363	0
0	13212	4726.808123164948	1
0	13216	4731.037747427687	2
0	13218	4734.449211505129	3
0	13219	4734.601178862561	2
0	13225	4734.928972086165	3
0	13228	4735.39700505965	4
0	13229	4735.698468945336	3
0	13235	4737.363153232868	4
0	13236	4737.880372803788	3
0	13246	4739.244111392246	4
0	13247	4739.684245470174	3
0	13252	4740.597993976034	2
0	13258	4744.175329362876	1
0	13267	4747.709288566332	2
0	13268	4747.83449214207	1
0	13274	4749.297256590426	2
0	13275	4749.834633291113	1
0	13279	4750.344201574649	2
0	13282	4751.646465692338	1
0	13286	4751.652544241329	2
0	13288	4751.759847243882	3
0	13292	4752.215228642388	4
0	13294	4752.651718830884	5
0	13295	4753.269593862949	4
0	13299	4753.735044670963	5
0	13303	4755.410617243292	4
0	13310	4756.711390827997	3
0	13321	4761.505068108185	4
0	13323	4765.654122614333	5
0	13325	4766.263162323917	6
0	13326	4766.354998943956	5
0	13336	4769.473508547318	4
0	13347	4772.059682449895	5
0	13353	4775.221379698085	6
0	13354	4775.49290785162	5
0	13360	4777.720950055767	6
0	13365	4783.442468324299	5
0	13370	4783.634332005188	4
0	13376	4785.466160596717	5
0	13378	4786.859533999402	6
0	13379	4788.026033079722	5
0	13386	4790.052895605635	4
0	13391	4790.558393427906	3
0	13397	4791.173036449888	2
0	13403	4791.570992550279	3
0	13407	4792.791592020339	4
0	13410	4795.444918945211	3
0	13417	4797.192501542474	4
0	13419	4799.128109452469	5
0	13421	4799.69880907365	6
0	13422	4799.93277616707	5
0	13431	4801.860056417455	6
0	13435	4804.193169613234	7
0	13437	4804.494420455906	8
0	13438	4806.545950323729	7
0	13445	4807.702999380735	8
0	13447	4808.0570574312	9
0	13448	4809.805882779513	8
0	13453	4810.15879114812	7
0	13457	4812.685751798758	8
0	13459	4813.418040929541	9
0	13465	4818.899995259919	8
0	13473	4823.896202905148	9
0	13476	4827.255010906641	8
0	13484	4829.26684346102	9
0	13485	4829.595755087357	8
0	13489	4831.887409019355	9
0	13495	4834.887240269483	8
0	13501	4836.305477447608	7
0	13506	4836.497499329647	6
0	13511	4836.963346821633	5
0	13517	4840.157430253339	6
0	13519	4842.584968494997	7
0	13520	4843.153439433247	6
0	13524	4846.905227336883	7
0	13528	4848.907897459208	8
0	13531	4849.448037766037	7
0	13539	4849.949392339433	8
0	13540	4852.396516843651	7
0	13547	4854.035505532379	8
0	13548	4854.681034044132	7
0	13554	4855.815040300048	6
0	13561	4857.806123781467	7
0	13565	4859.928244985111	8
0	13568	4862.231744303659	7
0	13574	4863.056661338676	6
0	13583	4867.250202105921	7
0	13584	4867.309716442726	6
0	13593	4868.514977639122	7
0	13595	4870.921490066115	8
0	13596	4871.594862012864	7
0	13605	4872.827396037874	6
0	13611	4873.093972889117	7
0	13612	4876.85234458419	6
0	13620	4881.21709114266	7
0	13622	4882.240271073804	8
0	13623	4885.408817155586	7
0	13629	4885.684746774162	8
0	13633	4893.998795301447	7
0	13639	4896.0031409922	6
0	13644	4896.459245431793	5
0	13650	4896.477767222534	6
0	13654	4897.687362322052	7
0	13655	4900.518457786069	6
0	13660	4901.64258141025	5
0	13668	4907.792541267217	6
0	13670	4908.2078148783	7
0	13671	4908.901872607277	6
0	13682	4914.804690837148	5
0	13686	4916.537191556328	6
0	13692	4919.097639676588	7
0	13694	4919.097893056507	8
0	13697	4920.730791470933	7
0	13705	4922.432519615602	8
0	13707	4923.777205301716	7
0	13712	4924.019125601966	6
0	13716	4926.840979768964	7
0	13718	4930.164809791931	8
0	13720	4930.380923009783	9
0	13727	4931.805107739734	8
0	13733	4933.217907070254	9
0	13734	4934.424372681307	8
0	13738	4935.475217200664	9
0	13742	4939.662112857327	10
0	13747	4942.288952351563	9
0	13753	4943.38107459562	10
0	13755	4943.990469944989	11
0	13760	4947.746823071922	10
0	13766	4947.879400750878	11
0	13767	4948.172025458623	10
0	13784	4954.77763849357	9
0	13789	4954.816382001656	8
0	13796	4955.21034220717	9
0	13797	4955.532948635224	8
0	13804	4956.069931056863	9
0	13808	4956.938289671563	8
0	13815	4959.225601055304	9
0	13817	4960.373059622418	10
0	13819	4961.347329773917	11
0	13820	4962.362430171144	10
0	13826	4962.837626686238	11
0	13829	4963.653721035635	10
0	13839	4964.822251798836	11
0	13841	4964.881117166279	12
0	13843	4970.036125406888	13
0	13845	4971.068158935264	14
0	13847	4972.532793318937	15
0	13848	4972.763492024664	14
0	13853	4974.610987300038	13
0	13861	4976.299176500581	14
0	13865	4980.105626133962	15
0	13866	4982.08172909545	14
0	13872	4982.086283638132	15
0	13875	4984.276475258775	14
0	13881	4985.188589088592	15
0	13882	4985.221574590835	14
0	13891	4989.926320610142	13
0	13898	4991.066389287468	14
0	13902	4991.582848246976	15
0	13903	4992.950003362798	14
0	13909	4994.919802960481	13
0	13914	4995.6465722094	12
0	13919	4996.670191269669	11
0	13924	4998.629746140955	10
0	13928	5001.114217383025	11
0	13930	5002.183035481006	12
0	13938	5007.901017061784	11
0	13945	5010.407252745816	10
0	13950	5011.500409754891	9
0	13956	5013.134083616273	8
0	13961	5013.980563952585	7
0	13967	5014.841583357533	8
0	13972	5018.88941791188	7
0	13977	5021.157691852701	6
0	13982	5022.703855876808	5
0	13988	5025.748680302998	6
0	13990	5026.143849658816	7
0	13991	5031.388665728678	6
0	13996	5031.656706360709	5
0	14000	5031.916304518371	6
0	14005	5033.570043619816	5
0	14009	5033.715532971801	6
0	14015	5035.946262889837	7
0	14016	5036.359858268731	6
0	14022	5036.702122084942	7
0	14024	5038.013905867047	6
0	14035	5038.345211650246	7
0	14036	5038.349436096664	6
0	14041	5039.36251547552	5
0	14047	5039.924322336026	6
0	14052	5042.591444444345	5
0	14057	5042.848682462391	4
0	14062	5043.406744530733	3
0	14071	5046.769416411374	2
0	14078	5048.51103839925	3
0	14080	5049.007003048126	4
0	14085	5051.127355545097	3
0	14091	5051.236868907717	2
0	14097	5053.775565481172	3
0	14098	5053.875173338683	2
0	14108	5056.856628272353	1
0	14113	5058.087949491307	0
0	14117	5061.160801471174	1
0	14119	5063.907900927512	2
0	14126	5070.329837961988	1
0	14131	5070.541416082558	0
0	14143	5073.998509989274	1
0	14145	5074.696163951652	0
0	14174	5081.184717203698	1
0	14177	5086.395122183923	0
0	14188	5086.906107191593	1
0	14191	5090.34437340352	2
0	14193	5090.424401062504	3
0	14194	5092.348106541234	2
0	14200	5092.490154128945	3
0	14201	5093.579697909371	2
0	14208	5094.070281747578	3
0	14213	5095.867054915131	4
0	14214	5095.913784439054	3
0	14221	5100.066895620687	4
0	14223	5108.012582647695	5
0	14224	5109.460505845311	4
0	14230	5110.282959380007	3
0	14236	5110.980793150998	4
0	14242	5115.710876994672	3
0	14248	5119.75674122376	2
0	14254	5119.888476919036	3
0	14256	5121.006255166883	4
0	14260	5121.451792096706	3
0	14267	5123.490285708521	2
0	14272	5123.995796480711	1
0	14276	5124.411551064627	2
0	14285	5130.292574910691	3
0	14286	5132.167668628379	2
0	14292	5132.818910732146	3
0	14294	5132.996855001533	4
0	14299	5133.504475373643	3
0	14305	5135.190746270677	2
0	14310	5135.418989858951	1
0	14317	5136.408499459538	0
0	14325	5139.167403822274	1
0	14327	5142.058400237878	0
0	14339	5145.666445763663	1
0	14340	5146.661447085239	0
0	14367	5155.944427149205	1
0	14368	5157.035338237087	0
0	14382	5161.7583562442	1
0	14384	5162.420635879164	2
0	14387	5163.993801669012	1
0	14393	5165.179930658655	0
0	14409	5169.674594645027	1
0	14411	5170.53308455081	2
0	14412	5171.426808381702	1
0	14417	5172.283077363075	0
0	14424	5173.064161220524	1
0	14426	5173.11157868646	2
0	14428	5175.024456953892	1
0	14433	5176.210804031695	0
0	14449	5185.151870653513	1
0	14451	5185.8626083403	0
0	14460	5187.477151865961	1
0	14462	5189.102644465888	2
0	14468	5194.262612459746	3
0	14470	5197.424429696868	2
0	14475	5198.549036327565	1
0	14479	5201.442460351932	2
0	14481	5201.490486189482	3
0	14486	5206.477709334597	2
0	14492	5207.800341191418	1
0	14497	5211.304867436423	0
0	14503	5211.518020298358	1
0	14507	5215.813543640546	2
0	14508	5215.907456782402	1
0	14514	5217.694586102757	0
0	14521	5217.93540825041	1
0	14522	5219.52384344235	0
0	14528	5220.593539254094	1
0	14530	5221.210030038274	0
0	14542	5225.853415453288	1
0	14543	5228.193632421663	0
0	14550	5230.521194447613	1
0	14552	5233.438194373983	2
0	14553	5234.274157209611	1
0	14559	5235.247083101913	2
0	14561	5235.927677541908	1
0	14568	5237.620411431246	0
0	14592	5240.872055844177	1
0	14595	5242.301249243142	0
0	14607	5242.753379733351	1
0	14610	5244.439710143341	0
0	14654	5254.379525722985	1
0	14656	5256.153525859264	2
0	14659	5257.548158067674	1
0	14665	5259.384600166874	0
0	14675	5263.608865323329	1
0	14683	5270.453318306526	2
0	14684	5272.377448568346	1
0	14690	5273.222903990361	0
0	14697	5273.662151592282	1
0	14698	5273.75747330013	0
0	14702	5275.045416500106	1
0	14709	5281.59161424162	0
0	14713	5282.023916906376	1
0	14715	5282.081417228334	2
0	14717	5282.547354574878	3
0	14719	5282.714788337332	4
0	14723	5287.341048172568	5
0	14724	5288.401691878543	4
0	14730	5289.389126691279	5
0	14733	5290.058619840999	4
0	14740	5293.996000634437	3
0	14746	5297.88445026642	4
0	14750	5300.706512323408	3
0	14757	5301.800824378143	2
0	14762	5302.663597817004	1
0	14768	5302.684645152662	0
0	14779	5303.609525881674	1
0	14782	5304.28189866977	0
0	14788	5304.649677389543	1
0	14790	5307.833394394742	0
0	14801	5308.943090790711	1
0	14804	5311.509815013117	2
0	14805	5312.46325443212	1
0	14816	5315.647860130736	2
0	14817	5318.017225126623	1
0	14822	5319.292700464044	0
0	14828	5319.519750087717	1
0	14832	5320.617501896711	2
0	14834	5321.462167778706	3
0	14835	5321.747959664846	2
0	14845	5326.980001266969	3
0	14846	5327.807085485055	2
0	14852	5330.455474800132	1
0	14857	5331.507607544663	0
0	14886	5344.99952385117	1
0	14890	5347.688218351997	2
0	14892	5347.840013473447	3
0	14893	5350.25018379592	2
0	14899	5350.401598561118	3
0	14901	5352.880241424558	2
0	14906	5353.477287954052	1
0	14914	5355.806717379854	2
0	14923	5363.553314159107	3
0	14924	5363.568707500537	2
0	14929	5363.949463823968	1
0	14935	5365.296490734311	2
0	14938	5366.752505137618	1
0	14944	5367.258841203756	0
0	14955	5369.722503646132	1
0	14961	5372.343696994818	2
0	14962	5372.783464527621	1
0	14973	5375.354375798976	0
0	14984	5376.480802499014	1
0	14985	5377.162124837251	0
0	15000	5379.755692720751	1
0	15001	5381.394576195834	0
0	15020	5386.45675362358	1
0	15021	5388.96318031247	0
0	15028	5390.752929637266	1
0	15029	5392.967932904137	0
0	15045	5401.037670037479	1
0	15047	5402.785030848704	2
0	15049	5403.09760822078	3
0	15051	5405.204088291932	4
0	15053	5405.443333960676	5
0	15054	5405.796140686176	4
0	15062	5412.319579755602	5
0	15063	5413.077404206338	4
0	15069	5413.260671822666	5
0	15073	5416.394949984346	4
0	15080	5418.523645456437	5
0	15081	5419.490936407498	4
0	15090	5423.848508194718	5
0	15091	5424.07926064053	4
0	15097	5424.730943535613	5
0	15099	5425.98395151701	6
0	15101	5428.888518126266	7
0	15104	5431.254726203751	6
0	15109	5432.219009685807	5
0	15116	5434.292835967289	6
0	15118	5434.957464087679	5
0	15126	5439.40079362051	4
0	15131	5439.600865138515	3
0	15136	5439.991577333544	2
0	15153	5447.459849889856	1
0	15159	5450.312138915661	0
0	15175	5451.946787717771	1
0	15181	5454.970896968726	2
0	15184	5456.09719414828	3
0	15186	5456.481468777639	4
0	15188	5457.238193527488	5
0	15190	5457.925008231422	6
0	15192	5460.603012004718	7
0	15193	5462.041681327411	6
0	15198	5462.715446208284	5
0	15206	5464.894020817572	4
0	15212	5465.144444664693	5
0	15215	5467.397315405152	4
0	15223	5468.031221611554	3
0	15228	5469.724240445599	2
0	15232	5470.094382022495	3
0	15237	5472.399743467641	4
0	15240	5473.405995585005	5
0	15243	5473.998540721277	4
0	15251	5476.031347341002	3
0	15257	5481.373206424087	4
0	15258	5483.807154776612	3
0	15264	5484.399552750263	2
0	15270	5484.700877232073	3
0	15275	5485.67358493653	4
0	15277	5486.108731589167	3
0	15282	5486.240811273877	2
0	15289	5487.003350331512	1
0	15297	5490.901002400822	2
0	15299	5493.959728588342	1
0	15307	5497.918218592604	0
0	15323	5500.56835391815	1
0	15324	5503.118161267805	0
0	15350	5512.170890467078	1
0	15354	5516.517961576943	2
0	15356	5517.697811621297	3
0	15358	5518.543898959216	4
0	15362	5519.916715236167	5
0	15363	5521.49558863377	4
0	15369	5522.154710797477	5
0	15370	5522.293586212113	4
0	15376	5522.470446539413	5
0	15377	5523.084345225353	4
0	15384	5525.106669918093	3
0	15392	5528.622793433363	4
0	15395	5528.984621114586	3
0	15400	5529.531905428649	2
0	15406	5530.006785894245	3
0	15408	5530.209776575084	2
0	15418	5532.731147355525	1
0	15424	5532.86668231498	2
0	15425	5533.896677313667	1
0	15431	5537.75071576288	0
0	15447	5542.23440297871	1
0	15451	5544.00715992812	2
0	15453	5544.071090892703	3
0	15454	5545.782403002487	2
0	15460	5546.835341987563	3
0	15463	5547.53444322982	4
0	15465	5550.253935206928	3
0	15470	5550.573540601146	2
0	15475	5551.378404678209	1
0	15480	5553.346134593524	0
0	15508	5565.684490865398	1
0	15509	5567.419143591087	0
0	15527	5575.444661398137	1
0	15529	5578.439058959038	0
0	15549	5584.203712479292	1
0	15550	5585.056045693298	0
0	15565	5589.24291527452	1
0	15566	5589.463700187241	0
0	15572	5590.640754864017	1
0	15573	5590.845851095482	0
0	15579	5591.406760679994	1
0	15582	5592.31485060396	0
0	15596	5599.721047076968	1
0	15598	5600.794413837753	2
0	15599	5605.154228795623	1
0	15605	5605.600317575823	0
0	15615	5607.786693939529	1
0	15619	5611.392933991393	0
0	15625	5612.686334101591	1
0	15629	5615.174445844522	0
0	15653	5622.377368646468	1
0	15655	5623.563633495853	2
0	15657	5623.938811545386	3
0	15660	5626.095806445723	2
0	15669	5627.410475344288	3
0	15671	5627.61176938245	4
0	15673	5628.379862120025	3
0	15679	5628.713673829108	4
0	15682	5629.238798397827	5
0	15683	5629.321559071248	4
0	15688	5629.422944226017	3
0	15695	5630.635548514564	2
0	15703	5633.02843844468	3
0	15705	5633.809543958066	4
0	15706	5634.409264401822	3
0	15713	5635.970560619501	4
0	15715	5636.714385437332	3
0	15720	5637.259440214038	2
0	15729	5639.850005608457	3
0	15732	5642.253483264756	4
0	15734	5642.254622974784	5
0	15737	5646.777936472579	4
0	15743	5648.575422843771	3
0	15749	5650.398976826943	2
0	15754	5651.529628386935	1
0	15759	5652.003546081021	0
0	15783	5660.003810105627	1
0	15784	5662.035416139763	0
0	15790	5662.582449220021	1
[...]
5	78748	28309.491962710267	4.662130057379
5	78753	28309.709410412193	4.334396645901
5	78758	28310.275419764599	4.558873896509
5	78778	28315.472488211048	4.907762401243
5	78794	28319.462997437494	4.958911174493
5	78800	28320.017163275248	3.100889164566
5	78807	28325.091169367547	7.659663328675
5	78816	28325.607738598661	7.90553631491
5	78821	28327.281693404373	8.218575034571
5	78828	28330.956158512085	11.498616881454
5	78839	28337.513564318238	12.354454003255
5	78854	28341.37189970506	15.904456807325
5	78866	28345.590811916762	17.263389833899
5	78872	28346.128732296761	6.599749815803
5	78885	28349.464386505273	9.007858858774
5	78904	28362.50069443683	19.260940421028
5	78925	28369.41859263498	21.550368868818
5	78934	28370.656321284407	22.084116758082
5	78939	28370.785254374654	18.199361362973
5	78946	28371.755093698315	18.631307275854
5	78955	28378.180923189209	24.230669073866
5	78964	28381.183033706815	24.970131140498
5	78972	28382.411999672806	20.955401174874
5	78984	28383.0217463522	20.938885335511
5	78990	28384.65836817115	21.246925233634
5	79002	28389.1196195626	21.762053805409
5	79010	28390.747357617614	22.974079173704
5	79017	28392.08532504366	21.946398973131
5	79022	28393.106131412905	21.813601603923
5	79027	28394.580271436257	19.852166853326
5	79032	28398.772324756438	18.687891686579
5	79037	28400.084851078305	17.378196654191
5	79042	28401.925161616856	19.110338207252
5	79049	28403.409759687273	18.465595770001
5	79068	28416.590669275167	29.833881335916
5	79073	28416.933545412957	29.084298827468
5	79082	28425.341025054424	34.906633066507
5	79087	28425.944499470701	35.136567656825
5	79102	28431.557906102884	28.323847148767
5	79108	28434.611921299864	27.395989700323
5	79116	28438.940904347703	23.942037554481
5	79121	28439.023406624765	22.617243251539
5	79127	28440.234480058755	16.640824496623
5	79132	28441.285596596588	15.004450956205
5	79138	28441.832069765696	14.085906816024
5	79145	28442.893033673931	13.035334117417
5	79150	28442.942841362596	4.824327406955
5	79205	28463.248366396671	5.896584582976
5	79210	28464.196296555361	4.41481908321
5	79225	28467.42591543116	2.043374282379
5	79248	28474.28138094034	6.273034111401
5	79256	28477.556425740452	9.305383656326
5	79262	28479.383671411507	10.212624382815
5	79267	28480.356356020598	10.079392758016
5	79285	28485.332926650949	2.891829450091
5	79292	28487.615452413762	4.17257839837
5	79297	28489.133342222374	3.244178057591
5	79321	28497.421834866921	7.333387167823
5	79326	28497.789017055729	5.69834485924
5	79331	28498.947111529065	2.365634879767
5	79355	28504.876757801461	2.674925516254
5	79363	28507.799562366534	4.459761673367
5	79368	28508.76283744679	2.842593246573
5	79394	28523.096850966116	7.965574234708
5	79401	28523.737589817751	8.489152753051
5	79406	28523.840147514098	8.184417305977
5	79415	28530.500953025228	11.387469242252
5	79420	28530.523204421759	11.325947687801
5	79431	28536.056601728403	15.527069042314
5	79438	28536.81778211192	13.676881225876
5	79447	28541.409757033765	8.934567409512
5	79452	28541.442293035234	6.336382922954
5	79457	28542.191925253803	5.539216009112
5	79475	28545.554934022918	2.751313380299
5	79496	28551.132894820373	1.351343445467
5	79512	28557.676995048522	7.150774456084
5	79517	28559.334449790447	6.586380162008
5	79525	28562.457658206757	9.622317201264
5	79534	28565.63582592258	6.062509327644
5	79540	28572.454994294974	9.865976658669
5	79560	28580.449649937074	6.096181806483
5	79568	28581.108117802568	5.30748589989
5	79575	28581.788964612781	3.033226097237
5	79582	28588.320797632388	7.418440115435
5	79598	28592.002136673286	2.883133165814
5	79603	28593.40803419578	3.052479641518
5	79610	28595.590694292389	4.413520103164
5	79640	28604.560001618902	6.325361622087
5	79645	28604.564195836022	5.296207478733
5	79656	28610.59641844663	9.533062161246
5	79675	28626.701013613124	21.137143641573
5	79690	28631.6990644544	25.028794535797
5	79699	28640.237805896219	28.353245560987
5	79704	28641.109154165865	29.085811977525
5	79712	28646.971695332239	28.364982718133
5	79719	28648.071481534074	26.74510306274
5	79737	28656.125300762853	29.770709908863
5	79743	28658.295919196281	30.754154286714
5	79753	28662.873705812418	35.009718957757
5	79758	28663.535053602907	13.327124036757
5	79771	28670.259733169161	19.822662923012
5	79788	28678.378769520673	25.971403278576
5	79795	28680.320637490019	18.7705252114
5	79800	28683.150603044899	17.232195646514
5	79809	28689.535550002188	20.57414089145
5	79822	28695.075735978491	16.934322562553
5	79831	28699.061869754453	10.070055987173
5	79840	28701.533012929366	8.824555556891
5	79846	28701.744963077738	8.64085222776
5	79853	28703.630762298155	10.326668323216
5	79858	28703.805715884619	7.469613698802
5	79864	28704.848705030586	8.131231873592
5	79869	28705.194787890806	4.799068044751
5	79876	28707.730710328345	4.104309146268
5	79922	28731.715597723001	10.200053646188
5	79933	28733.876386481404	9.583396107087
5	79944	28737.102443857826	4.223121289116
5	79963	28745.828382507395	12.349914032205
5	79971	28748.699660896033	13.689040617954
5	79978	28749.689628121953	5.034368986342
5	79985	28749.945216204258	4.869884823108
5	80011	28765.365655236031	13.134791867183
5	80021	28769.745260198722	14.612681518884
5	80030	28771.828261913343	15.79941746043
5	80038	28772.84679832443	14.985308006355
5	80043	28773.435714698902	15.249801885071
5	80050	28784.891349069417	19.939514695322
5	80059	28787.841664611153	22.573492077888
5	80080	28799.517050475347	33.129544999849
5	80087	28800.453380186027	30.258349494303
5	80092	28801.30554230536	15.33756829176
5	80105	28811.580466673358	25.455610197332
5	80110	28814.831915013424	24.674523397967
5	80115	28815.769982868276	22.363204850864
5	80120	28816.998149751437	19.92428821821
5	80125	28818.395516268193	18.502094720339
5	80132	28819.806430054675	14.881398296164
5	80137	28820.505900203489	14.123477879224
5	80152	28831.986306097429	21.108688032921
5	80161	28833.370885301793	12.320865127829
5	80171	28835.215066279603	6.148757824207
5	80177	28835.741341177997	2.775467373091
5	80190	28844.469503079355	9.854162861281
5	80195	28844.627148631096	2.126073023139
5	80219	28856.501315687629	9.773878812619
5	80230	28859.931728393849	7.155077203688
5	80235	28861.262038596915	6.914134235939
5	80244	28863.400330739349	8.842246610703
5	80252	28865.311299360415	7.512931766923
5	80257	28865.481872078385	4.104194917584
5	80272	28868.366550045057	3.728482653556
5	80282	28873.802759237589	7.764432708076
5	80287	28873.910441106704	7.2945001872
5	80294	28876.201892455263	9.05135075284
5	80301	28879.769886251464	7.588714714707
5	80306	28879.977125633763	6.958150330728
5	80316	28885.121655084249	6.57112598819
5	80322	28885.240098827756	2.191089325034
5	80327	28887.50251676444	4.0455839892
5	80361	28897.878012287093	5.360795183445
5	80379	28907.712243266534	12.3000714778
5	80384	28908.030843757414	12.421372228774
5	80389	28908.973317232162	12.731667991542
5	80412	28922.115497220118	25.61584890177
5	80420	28926.367079859361	25.284402902796
5	80435	28930.222166641595	28.759286504985
5	80441	28933.363638006472	30.301153917165
5	80446	28933.608935806603	26.528907700248
5	80455	28937.479629396704	25.87283581526
5	80466	28940.080572847668	27.681833188001
5	80471	28942.156232346466	27.790235459796
5	80480	28943.887979738721	27.900182556993
5	80485	28946.655183560063	30.113017708021
5	80494	28948.900134758847	28.391570784616
5	80501	28949.758992606248	22.557917803814
5	80506	28952.488994847691	24.608211535119
5	80511	28953.27240058098	25.140407462365
5	80518	28955.802024927512	18.210592593865
5	80525	28956.666234680377	17.951133043235
5	80536	28962.473957441553	20.161606970173
5	80543	28964.837898676529	21.620032176543
5	80555	28972.997741639474	25.939920579728
5	80562	28973.185635913418	18.116742986043
5	80575	28975.510027063814	19.225101845124
5	80582	28976.484758974633	11.845473936414
5	80591	28978.737071131692	8.872235654646
5	80601	28981.142047014492	9.049213349678
5	80608	28983.280386099294	8.802600977055
5	80614	28985.027403171663	9.809244660291
5	80628	28989.613641744694	14.200749692878
5	80633	28990.817387544877	15.241684309013
5	80646	28999.029965654435	20.078952821378
5	80652	28999.756269630837	19.651100748652
5	80658	29001.046976279773	14.548898057383
5	80665	29003.592292783269	16.956185827378
5	80670	29003.850993016197	14.830455837495
5	80678	29005.889371578274	16.553572853726
5	80683	29006.53463122843	10.854401147515
5	80692	29012.847808975067	14.473236543857
5	80701	29015.825702836638	7.3326224717
5	80708	29018.779590566151	9.583595478748
5	80727	29026.995166671955	14.0589528894
5	80734	29030.764581242524	14.353582019491
5	80748	29035.120153804535	15.782771747644
5	80754	29039.578994949597	18.0682674285
5	80763	29042.434314271834	20.616572463039
5	80770	29044.601930251067	22.369561405116
5	80775	29046.648764939519	23.590275026383
5	80782	29050.370368984958	17.935251462471
5	80792	29054.528731699926	21.983307839173
5	80800	29056.2372155669	14.634217102446
5	80809	29057.398938755683	15.457499708619
5	80818	29062.576290651385	18.991698301818
5	80824	29066.181315226324	12.065280680527
5	80831	29070.580054837427	14.875854625504
5	80836	29070.703271653067	14.361947896776
5	80847	29077.916788036737	17.021190776731
5	80853	29079.069804770421	5.115865785497
5	80881	29087.071574527578	4.315783385912
5	80898	29091.328269429814	4.008884900117
5	80919	29095.882974544678	4.269850861244
5	80926	29096.530120696696	4.532835971861
5	80933	29100.938258695177	7.701645599947
5	80941	29102.311227829889	9.022093673163
5	80948	29103.096467901534	8.749375038759
5	80956	29104.390760318283	8.187262813023
5	80965	29107.605529382039	6.64407341198
5	80978	29109.354469082112	5.994302153452
5	80987	29114.086664521046	8.952893747559
5	80992	29114.547272884867	8.54115088827
5	80997	29117.748161865505	8.967987376227
5	81004	29121.651548651853	12.720305492318
5	81012	29125.441076015301	16.360957680485
5	81017	29125.655986679166	12.093506707567
5	81029	29130.38118199309	7.931381538215
5	81036	29131.777965678086	4.258254402519
5	81047	29137.168618906611	7.490222505863
5	81053	29137.964228455993	7.471772090971
5	81059	29138.879278285697	4.67171321945
5	81081	29145.943149959273	6.040365287362
5	81088	29148.06123626923	7.330129292996
5	81094	29148.289065681832	7.070215020866
5	81100	29154.285594691019	8.616017815967
5	81105	29154.475419311139	6.891633530984
5	81132	29160.664291701725	3.613789136129
5	81139	29161.252379896471	0.667196435862
5	81148	29165.728371315988	4.697262137744
5	81153	29166.787969455439	3.077555814612
5	81158	29167.462620082916	3.234882779767
5	81192	29180.142522307006	6.761549398131
5	81199	29180.4358036113	1.996688418009
5	81204	29180.540053855589	1.479115878669
5	81214	29184.665746828709	4.5174744494
5	81221	29185.408337095618	3.542169408019
5	81227	29186.743402234158	1.737523500659
5	81255	29193.823602631953	2.067601981915
5	81267	29196.361515069677	0.854381140483
5	81317	29211.728948069427	8.12257273813
5	81337	29215.020677048372	2.778293103899
5	81351	29220.975985607529	7.00622736416
5	81360	29222.000160720104	4.782900211646
5	81365	29222.567968651644	4.614312272221
5	81378	29231.549903165471	9.850806270867
5	81383	29231.767651208511	8.451157239491
5	81405	29239.045602770933	2.684119765699
5	81433	29250.2042677511	7.849831535704
5	81438	29250.336706552204	7.575896539568
5	81451	29253.176442709656	10.366576192148
5	81465	29261.181700536877	14.852331196425
5	81471	29261.639201393013	14.272689198235
5	81477	29262.587217732578	15.102913608936
5	81488	29265.317661676886	17.480843160119
5	81493	29265.523707371331	15.028683851418
5	81498	29265.992180398455	14.111948783989
5	81507	29269.279690196533	11.651992933952
5	81512	29270.169646385577	12.071524087978
5	81517	29272.424309809334	14.129565292006
5	81528	29280.865804691187	20.928713692804
5	81545	29285.935308014944	23.035266092321
5	81551	29287.414707196545	24.312190965125
5	81556	29288.082246898311	19.018291534485
5	81561	29291.111436812512	21.99773052404
5	81566	29293.41197359243	12.408985342924
5	81571	29293.587638246064	12.106284862045
5	81577	29294.970112145272	12.944598485028
5	81585	29299.071135719174	14.740842471625
5	81590	29299.086240045385	1.0963499247
5	81606	29300.96114992993	1.84003305585
5	81627	29312.682013363159	11.438753722063
5	81643	29317.448327597251	5.082090037607
5	81649	29318.131696183698	5.206002144462
5	81654	29318.560602406019	5.112825157839
5	81665	29320.052651968996	4.918547830922
5	81672	29323.327961622182	6.047148205499
5	81682	29329.519648176975	10.665781647344
5	81687	29329.663384510811	9.662592286381
5	81692	29330.178237795158	9.241211187857
5	81707	29334.833054588974	7.68846113704
5	81716	29338.75527858718	5.323370081344
5	81725	29341.05584398716	7.482927099354
5	81730	29341.62204168919	3.907976972412
5	81748	29350.287727096336	6.861259871579
5	81776	29358.935438789128	1.200717126374
5	81786	29362.807740645368	4.174184901781
5	81795	29364.460974829652	4.491436232466
5	81825	29373.536850253608	4.588690678073
5	81831	29376.05142546048	4.78739437597
5	81836	29376.669242110612	3.905832279437
5	81856	29384.583728003254	7.589164320892
5	81863	29385.739445020519	4.834636372331
5	81896	29394.875526959043	3.91171658217
5	81909	29397.222902349253	5.123121555528
5	81914	29397.289403497236	3.439535478815
5	81928	29403.829128512178	9.770177149487
5	81933	29403.976383340402	9.891401472394
5	81938	29404.003512661239	8.853543042217
5	81944	29406.417373648573	9.839959058207
5	81951	29407.087735407382	4.898862588236
5	81960	29409.246773158145	6.16248063246
5	81965	29410.397933957455	6.735959227139
5	81976	29415.640362064074	8.723051164841
5	81984	29417.297968239587	9.765624563754
5	81994	29421.41095678313	5.715422446138
5	82037	29437.598188492964	9.48349380942
5	82042	29437.637663660431	4.76876733315
5	82053	29441.060448997931	6.927949670756
5	82058	29441.27485146249	4.130714801442
5	82084	29451.448673380224	10.409051899716
5	82090	29452.07216943514	10.794524383854
5	82102	29456.63193520711	14.855887890078
5	82107	29457.336549928083	14.658970670314
5	82115	29459.88722118249	15.729828624187
5	82123	29464.083470170008	19.339404839275
5	82130	29467.443830362161	19.585198272655
5	82136	29468.73365065879	19.587276403243
5	82149	29472.959028883963	21.52280350306
5	82156	29475.731479930593	20.650321307315
5	82161	29476.06806136362	20.935666194139
5	82168	29482.213251467481	26.213560673605
5	82180	29486.726657780758	23.680610407648
5	82185	29487.662966130744	21.639317682059
5	82190	29489.133544014512	19.035931304732
5	82205	29498.567584101226	27.786653169959
5	82213	29500.147789860026	28.522933419691
5	82225	29502.521259924977	28.602397254996
5	82232	29504.033445721187	25.664064225274
5	82237	29504.337128895567	13.986882164878
5	82244	29506.421124956998	12.671082423887
5	82250	29508.701243346943	12.927822950603
5	82255	29508.917228311573	8.64388334098
5	82282	29512.695154334451	1.018496224962
5	82289	29513.597772160638	1.027074868248
5	82318	29523.421797885569	8.684170007022
5	82325	29525.624592771844	8.808410324799
5	82334	29528.678475904816	11.569192946854
5	82341	29530.899919946361	7.163155381583
5	82347	29532.062813119538	2.82799887193
5	82360	29535.23044188878	2.556232068634
5	82372	29537.536434507756	2.061435056081
5	82403	29547.841202002334	9.386411061402
5	82410	29549.732483499413	10.436354715295
5	82416	29551.674351139875	11.615328196106
5	82421	29552.469650333012	9.913760660741
5	82434	29564.095133755278	21.28896999435
5	82444	29571.545565379072	28.14162044035
5	82451	29573.388892039486	28.660920743417
5	82456	29574.010727619589	28.743242189209
5	82467	29578.289275788824	30.521103062742
5	82472	29578.751865245768	30.44547337422
5	82477	29578.855138430993	23.653459650431
5	82485	29580.019930311985	16.216832901457
5	82499	29586.77031921488	20.173088837915
5	82505	29587.425129881759	19.647411206214
5	82511	29588.534557171193	9.135523016513
5	82518	29591.353208992634	10.54733081639
5	82523	29591.730190068359	8.286098014323
5	82548	29597.745286648165	4.101552298419
5	82557	29599.431371940816	5.262311630477
5	82563	29602.443121230469	7.947737292289
5	82592	29619.848555062446	12.917523314704
5	82608	29624.486530826935	4.075838647378
5	82613	29624.876013558874	3.435484839112
5	82630	29627.030043423766	1.627663564806
5	82653	29635.564525146428	7.086417379671
5	82683	29643.869864191792	1.111772872812
5	82705	29651.09677288392	7.410342705728
5	82710	29651.724666941322	6.919754393101
5	82719	29654.65857066359	9.827850589522
5	82729	29661.083126619194	16.161184252914
5	82738	29663.300850494684	16.696499692217
5	82745	29665.54955508048	6.334914295305
5	82750	29666.8578251603	5.165298830075
5	82785	29680.236448306776	1.216388098329
5	82798	29682.380308880048	0.857604155427
5	82833	29690.211754798441	0.43132206738
5	82873	29701.169379342893	5.481921208455
5	82881	29702.783965180309	7.014329171088
5	82887	29703.287974063275	5.953096609321
5	82893	29706.15833262889	8.655184780724
5	82911	29711.560098172093	12.668657351334
5	82916	29717.323138725629	15.010339833752
5	82922	29718.110652707432	9.672878806338
5	82927	29718.200008681331	8.403233343079
5	82944	29721.322953187477	10.550698262353
5	82949	29721.922825598326	3.026931331761
5	82954	29723.136984569663	3.160940205439
5	82969	29728.895462758164	8.730138636856
5	82974	29729.620860377551	9.428057726114
5	82980	29733.783500513221	10.144698712297
5	82986	29735.270171391588	7.87241872616
5	83007	29739.954164445313	2.79883263829
5	83021	29744.375122721445	7.214087372897
5	83028	29745.481143633455	6.789022607094
5	83039	29747.708898744289	6.462958914856
5	83057	29751.236913459332	0.550760770785
5	83070	29753.186122201649	1.151017088577
5	83082	29760.005537627546	0.440820932658
5	83103	29771.153600303791	9.756712463118
5	83117	29773.414691306525	3.693737636043
5	83123	29774.545012292818	2.825506648709
5	83138	29781.371083413583	4.470960705671
5	83162	29783.275678047207	1.17493956231
5	83171	29785.805438346488	2.697640211693
5	83195	29795.058314652176	6.874609332523
5	83203	29798.496725273831	9.719307497843
5	83208	29801.523286342567	7.074725103447
5	83213	29802.289211388756	6.648676354015
5	83231	29814.634294068691	11.460018307338
5	83244	29815.381676799059	0.23962584995
5	83267	29820.577424208242	3.704372602534
5	83276	29825.754195184293	7.337268259012
5	83310	29842.811714612205	8.712627998503
5	83316	29844.476535233431	2.014991641667
5	83343	29855.161254691572	6.817396589655
5	83351	29857.202116291366	5.594516377995
5	83361	29858.745134504698	3.118583434399
5	83393	29872.58118189924	8.050066637426
5	83410	29876.849028208701	8.802171438629
5	83424	29883.20824013291	14.046906873096
5	83430	29884.32352123391	14.589140090086
5	83440	29885.464116104058	11.640174709088
5	83446	29887.361332391607	13.115731716365
5	83459	29892.838319976586	16.957710002917
5	83464	29893.778071659393	16.291274877299
5	83476	29902.333803507301	23.735503994391
5	83483	29904.518984945269	22.535365132742
5	83491	29906.108696117984	21.484765510598
5	83498	29907.240325120885	22.106157293147
5	83507	29908.818186818864	16.447051364225
5	83514	29910.049514432386	15.917508186118
5	83521	29914.001269949949	14.964278393019
5	83533	29917.353141806586	15.186610969777
5	83538	29917.393768115949	9.701621109236
5	83545	29917.959197837718	9.189370048982
5	83554	29923.327548869314	14.14766161967
5	83559	29925.695235349494	10.740865174705
5	83569	29929.220471527677	11.603318905725
5	83574	29929.620285687962	8.778409665988
5	83581	29933.488263955141	6.814676705102
5	83594	29939.348694921311	10.644111336187
5	83601	29940.537136835649	8.000025601757
5	83606	29941.007191665549	6.03870505545
5	83612	29942.605041769902	3.417453443686
5	83622	29946.399523195006	7.038361650452
5	83629	29949.523872155449	5.974964878271
5	83652	29956.129969954373	4.810559809554
5	83659	29956.492220606418	1.017437189388
5	83681	29959.883835131143	3.263705947643
5	83693	29966.44548378246	9.660077172234
5	83699	29967.112341058158	4.084001386931
5	83707	29970.50108259849	4.557265583041
5	83715	29973.938919331603	3.783821393196
5	83747	29987.735938229755	5.478100318722

