version 2
run Third-n5-17-20191016-14:54:06-11532
attr configname Third-n5
attr datetime 20191016-14:54:06
attr experiment Third-n5
attr inifile omnetpp.ini
attr iterationvars ""
attr iterationvarsf ""
attr measurement ""
attr network org.omnetpp.queueing.Pizza
attr processid 11532
attr repetition 17
attr replication ""
attr resultdir results
attr runnumber 17
attr seedset 17
param **.PS.maxInventoriedPS 5
param **.U1.interArrivalTime exponential(4s)
param **.U2.interArrivalTime exponential(6s)
param **.PS.serviceTimeForInventoryU1 exponential(1.4s)
param **.PS.serviceTimeForInventoryU2 exponential(1.4s)
param **.PS.serviceTimeDirectU1 exponential(1.8s)
param **.PS.serviceTimeDirectU2 exponential(1.8s)
param **.PS.probabilityProducing 0.8
param **.CS.serviceTimeU1 exponential(2.3s)
param **.CS.serviceTimeU2 exponential(2.3s)

vector 0 Pizza.EntryQueueU1 queueLength:vector ETV
attr interpolationmode sample-hold
attr title "queue length, vector"
vector 1 Pizza.CS queueLength:vector ETV
attr interpolationmode sample-hold
attr title "queue length, vector"
vector 2 Pizza.EntryQueueU2 queueLength:vector ETV
attr interpolationmode sample-hold
attr title "queue length, vector"
vector 3 Pizza.sink lifeTime:vector ETV
attr interpolationmode none
attr title "lifetime of arrived jobs, vector"
attr unit s
vector 4 Pizza.sink lifeTimeU2:vector ETV
attr interpolationmode none
attr title "lifetime of arrived jobs, vector"
attr unit s
0	0	0	0
0	5	1.396329674268	1
0	7	2.246730910068	2
0	15	8.107354914916	1
0	22	9.125971289312	0
0	33	11.034763139415	1
0	35	11.174425995395	2
0	44	14.397887362564	1
0	50	15.210779199654	0
0	66	19.566168863545	1
0	67	20.361240466719	0
0	78	20.974377260197	1
0	82	23.280411718354	0
0	98	26.656252009643	1
0	101	26.980047353248	0
0	108	29.775886139333	1
0	113	34.598697638291	0
0	124	36.159362259068	1
0	126	36.199111327989	2
0	128	37.846942727973	1
0	135	41.298022626225	0
0	142	44.946732104391	1
0	143	45.349200168606	0
0	149	46.307121687748	1
0	150	47.040374318938	0
0	166	47.979054237125	1
0	172	51.005886260454	0
0	180	51.456442627179	1
0	185	57.807043488631	2
0	186	58.259213193788	1
0	193	60.208511087015	2
0	195	63.959187954276	1
0	201	64.406093724871	2
0	204	69.436196536465	3
0	205	69.575414582627	2
0	211	69.781634131198	3
0	213	72.159432355554	2
0	221	75.695697487278	1
0	227	76.298837348414	0
0	245	77.604153729569	1
0	247	78.053107321518	2
0	250	78.696481681427	3
0	251	78.902230201884	2
0	262	83.232655867538	1
0	270	87.943762465697	0
0	288	91.606714947754	1
0	291	92.997411885131	0
0	312	99.104015264517	1
0	313	100.779653160481	0
0	322	101.821799876835	1
0	328	106.139967888293	2
0	331	106.697085179416	3
0	332	109.632402702491	2
0	340	110.989704458087	1
0	348	111.025435486144	2
0	350	112.657713166339	1
0	357	113.092635861103	2
0	360	113.928534505819	3
0	368	123.810558156735	4
0	369	123.84363318087	3
0	375	127.714467286258	2
0	380	128.332187619111	1
0	386	129.21579303424	2
0	387	129.488714020408	1
0	394	132.247059870255	0
0	400	132.737901848596	1
0	402	132.844324829632	2
0	405	134.357447573544	1
0	411	134.633277683164	2
0	414	134.912797479498	1
0	421	140.485452274595	0
0	469	165.512123355733	1
0	472	167.856593168353	0
0	486	176.49100355306	1
0	487	177.578971339104	0
0	535	193.804327311994	1
0	536	194.831406578781	0
0	550	197.115140399384	1
0	552	198.008265671008	2
0	553	198.94743099072	1
0	558	199.054208456988	0
0	564	200.109741824316	1
0	569	204.678478958404	0
0	581	209.065605667134	1
0	584	212.491066621148	0
0	590	214.175707978611	1
0	591	216.688533733861	0
0	600	217.279608032744	1
0	602	217.838701820462	2
0	609	223.352271589074	1
0	614	224.097638127771	0
0	659	233.986078968604	1
0	660	235.07455934453	0
0	666	235.849583660124	1
0	672	241.057368669021	0
0	679	241.72037872984	1
0	681	242.526972473195	2
0	683	243.183614706737	1
0	689	245.197975668406	0
0	714	252.750914913729	1
0	722	256.86461648176	0
0	778	286.500433579186	1
0	781	293.712762158191	0
0	792	297.948893693377	1
0	794	298.97359861951	0
0	803	302.265019847045	1
0	804	304.092573224604	0
0	817	306.7900988463	1
0	819	307.51020396203	2
0	821	309.099857843606	3
0	824	312.925710283211	2
0	831	315.214940305387	3
0	835	317.017866290266	4
0	836	319.973825558689	3
0	845	320.713503489901	4
0	846	322.377009787043	3
0	852	325.806503453135	2
0	858	329.377033372497	1
0	863	329.820207975514	0
0	872	334.22579023988	1
0	875	335.662599015068	0
0	882	336.901849096621	1
0	883	337.443749003247	0
0	902	341.844403242929	1
0	905	344.544898898228	0
0	917	346.198540195201	1
0	921	349.098265716479	2
0	923	352.087682411891	1
0	930	357.174305406676	2
0	931	357.839610317508	1
0	936	358.121589559609	0
0	948	359.722882216128	1
0	950	360.381503855068	0
0	956	360.69270883563	1
0	961	363.141924791055	0
0	984	368.535682227207	1
0	985	369.069805443326	0
0	991	369.300578549347	1
0	993	369.849820213594	0
0	1005	374.724126748671	1
0	1010	378.095394182243	0
0	1020	379.214885837637	1
0	1022	380.583495659068	2
0	1025	382.164966063553	1
0	1030	382.63893426372	0
0	1038	384.172804747918	1
0	1041	385.75628951581	2
0	1043	387.113264813994	3
0	1044	388.644889148708	2
0	1051	390.17322076778	3
0	1054	392.037363203393	2
0	1060	392.924275440163	1
0	1067	393.100464837178	0
0	1098	399.869956567109	1
0	1105	401.212647953757	0
0	1113	401.887395087937	1
0	1114	404.213768614049	0
0	1120	405.686956058821	1
0	1121	405.690385294557	0
0	1147	414.624466934778	1
0	1151	417.564042919065	2
0	1156	422.065709586112	1
0	1162	422.623529583474	2
0	1165	423.022844072497	3
0	1166	427.417103328598	2
0	1171	427.83212114353	1
0	1178	429.916787451387	0
0	1184	429.937187220265	1
0	1187	430.724900336675	0
0	1234	446.665956841459	1
0	1236	448.791719155748	2
0	1239	450.908285422918	1
0	1245	456.152496249697	0
0	1254	460.878271838043	1
0	1258	461.243252280104	2
0	1262	462.299133263663	1
0	1268	462.739678808355	2
0	1273	465.143650847591	1
0	1280	465.961054639925	2
0	1282	468.646711536092	3
0	1284	469.080477190132	4
0	1286	469.919143011611	5
0	1287	469.996372560673	4
0	1292	471.616964010673	3
0	1301	476.006114301412	2
0	1311	477.128961092878	3
0	1312	478.487491002815	2
0	1318	478.597576179317	3
0	1320	481.050280834742	2
0	1326	482.091011229225	1
0	1332	482.301449695233	2
0	1335	483.665317777037	1
0	1341	485.510456973486	2
0	1342	486.332257497656	1
0	1351	490.251719089463	0
0	1362	492.910276626994	1
0	1364	494.614027009063	2
0	1368	496.554948687616	3
0	1372	499.651168069512	2
0	1378	500.264476408072	1
0	1383	500.609581630222	0
0	1408	505.384749523137	1
0	1410	505.727544111588	2
0	1412	505.795970214872	3
0	1414	508.316208946488	4
0	1415	508.830814034637	3
0	1422	510.262191291588	4
0	1425	511.182164500222	3
0	1430	511.900692972367	2
0	1436	514.350513796993	1
0	1444	516.027276635648	0
0	1462	519.469954412457	1
0	1464	519.503265613972	2
0	1468	519.736120431901	3
0	1470	523.097158033806	4
0	1474	524.955128680301	5
0	1476	528.215404295421	6
0	1477	528.856595837299	5
0	1483	530.792641361001	4
0	1488	530.842842406986	3
0	1493	530.847730154844	2
0	1499	531.512578951579	1
0	1504	532.122291359894	0
0	1508	533.947319273351	1
0	1515	535.424831469552	0
0	1531	537.775673476955	1
0	1533	537.872524602515	2
0	1536	540.606515297053	3
0	1537	541.238214095034	2
0	1543	542.885369939068	1
0	1548	543.572643631973	0
0	1554	543.652484447551	1
0	1556	544.237382712143	0
0	1575	546.84698984435	1
0	1578	547.067572242689	0
0	1594	550.219823347396	1
0	1595	550.667408593945	0
0	1601	552.885240329461	1
0	1603	552.958609339225	2
0	1606	554.283526052262	1
0	1613	555.181383179397	0
0	1647	569.758246593468	1
0	1648	570.510731621857	0
0	1654	570.668667805808	1
0	1658	572.237380130576	2
0	1662	573.395008238631	3
0	1663	573.663081791995	2
0	1669	574.431638453485	3
0	1670	575.960981087714	2
0	1679	576.784931922708	3
0	1681	576.909766879803	4
0	1682	576.983308645557	3
0	1687	577.034528787875	2
0	1693	581.339184455561	1
0	1700	581.947872287858	2
0	1701	583.265936757332	1
0	1709	584.0796344795	2
0	1711	584.134957217115	3
0	1712	585.756459316815	2
0	1721	587.502201792389	1
0	1727	590.088099676025	0
0	1739	593.457392949857	1
0	1741	593.466729847671	2
0	1743	595.528798495178	3
0	1745	595.686748927401	4
0	1748	597.111970924473	3
0	1757	600.356953337411	2
0	1764	602.389603152446	1
0	1770	602.719334089574	2
0	1776	605.047894721796	3
0	1777	605.065805663595	2
0	1783	605.250492008564	3
0	1787	607.172747486897	2
0	1792	608.15512470477	1
0	1805	614.278728244739	2
0	1810	619.22211465254	1
0	1815	619.371344783294	0
0	1830	624.538446539026	1
0	1833	625.950145455993	2
0	1835	628.254353747826	3
0	1838	629.462152521649	2
0	1843	629.982906288427	1
0	1849	630.216884592628	2
0	1852	631.44767945988	1
0	1858	631.468658474108	2
0	1866	635.063352458356	1
0	1873	636.152644840015	2
0	1875	637.33392912728	3
0	1877	639.794087548762	4
0	1879	640.881920731338	5
0	1881	646.386507136513	6
0	1882	647.333044575631	5
0	1889	648.244024145022	6
0	1893	650.355193695875	7
0	1894	650.742106723681	6
0	1899	651.787139724759	5
0	1904	651.904995888988	4
0	1909	652.845352714052	3
0	1916	655.76624045661	4
0	1917	655.880964685401	3
0	1922	656.065865526284	2
0	1930	657.483631152248	3
0	1933	658.975546449968	2
0	1939	659.682741802691	3
0	1942	661.481580151358	4
0	1946	667.137924477598	3
0	1951	668.047236491059	2
0	1958	668.219973832615	3
0	1960	670.0121103383	2
0	1970	673.236598892149	3
0	1971	674.234836525096	2
0	1977	674.902043149674	1
0	1983	675.155058149016	2
0	1986	675.306846680922	3
0	1987	677.793142152583	2
0	1992	678.391649658352	1
0	1997	678.842837605213	0
0	2011	682.244077888371	1
0	2014	684.997569562591	2
0	2016	686.954000516374	1
0	2023	688.954872041302	2
0	2028	690.739951961581	1
0	2035	692.338938010655	2
0	2038	693.025689280592	1
0	2044	693.375980824218	2
0	2047	695.039680690681	3
0	2048	695.775747885915	2
0	2054	695.976152017683	3
0	2059	699.743939039186	2
0	2067	702.026109430187	3
0	2068	704.183072989001	2
0	2073	704.331082478404	1
0	2079	707.559698351749	0
0	2106	712.754538110865	1
0	2107	713.973598936744	0
0	2118	715.608302751859	1
0	2123	718.927982276853	2
0	2125	719.349696035582	3
0	2127	725.7086572311	2
0	2135	726.4055755918	1
0	2142	729.008181256675	0
0	2157	731.468616324728	1
0	2159	732.145675034357	0
0	2170	734.477259153208	1
0	2172	735.265396155052	2
0	2173	735.50060272472	1
0	2179	736.431300234364	2
0	2181	736.818989397468	3
0	2183	737.534683391392	4
0	2187	739.478447928786	3
0	2192	741.185143307135	2
0	2199	743.572001274176	3
0	2206	745.664968658086	4
0	2209	746.907072580818	3
0	2215	748.493301320242	4
0	2216	749.196202455063	3
0	2221	750.004220117967	2
0	2227	751.091954976423	3
0	2229	751.843162705809	4
0	2230	751.956689005406	3
0	2235	754.00016544768	2
0	2240	754.37990121215	1
0	2249	758.177915283253	0
0	2255	759.226244291518	1
0	2256	762.630410060426	0
0	2301	776.218323044285	1
0	2302	776.648753520213	0
0	2308	777.688843281695	1
0	2310	779.143291357157	0
0	2317	780.969016411926	1
0	2318	781.340476076699	0
0	2331	783.709991054111	1
0	2335	786.5417295226	2
0	2336	786.645874612885	1
0	2341	787.133547440463	0
0	2361	791.156285910512	1
0	2369	793.351394020468	2
0	2370	796.405072890264	1
0	2376	798.063411108576	0
0	2385	800.702413798296	1
0	2388	803.522458204816	0
0	2394	803.998143166131	1
0	2399	805.105538111886	0
0	2405	805.178824810836	1
0	2407	805.33467192076	2
0	2410	805.736668046505	3
0	2414	807.608822301231	2
0	2419	808.228875098948	1
0	2425	809.056958881359	2
0	2426	809.125402490059	1
0	2435	810.894442165893	0
0	2450	812.99858376393	1
0	2451	813.261121994095	0
0	2457	814.071783888089	1
0	2463	816.793663570476	0
0	2469	817.560069227243	1
0	2472	819.925087047641	2
0	2474	820.66617566062	3
0	2475	821.173063974058	2
0	2480	821.297974039777	1
0	2486	823.706830321848	0
0	2521	835.024130342078	1
0	2527	836.019801006264	2
0	2529	836.716752917485	1
0	2536	839.033136344206	2
0	2539	841.916515746933	1
0	2544	842.311675467522	0
0	2552	843.894566107401	1
0	2553	843.920935378857	0
0	2560	846.240127961929	1
0	2561	846.837906957894	0
0	2571	848.406810120689	1
0	2574	851.775426991214	0
0	2583	854.426593229857	1
0	2586	855.518494201602	0
0	2602	857.285989165639	1
0	2605	859.246266887307	2
0	2606	860.101822654713	1
0	2613	861.562839298018	0
0	2620	862.621909639073	1
0	2622	867.004447562078	2
0	2623	867.17507562133	1
0	2628	868.054881817979	0
0	2634	868.584703193922	1
0	2636	868.592633542955	2
0	2638	869.505417039264	1
0	2644	870.237054435512	0
0	2689	887.755346443684	1
0	2690	889.824813340153	0
0	2709	898.765075728201	1
0	2711	900.872744570971	2
0	2716	904.020975853871	1
0	2722	904.650389848123	0
0	2729	904.847737103038	1
0	2730	905.269582442035	0
0	2737	906.167284286117	1
0	2738	906.659932620152	0
0	2747	907.147258082933	1
0	2752	909.527148003463	2
0	2754	912.085091992197	3
0	2756	914.696948092451	4
0	2757	914.722704842979	3
0	2762	915.17584293257	2
0	2768	918.025510171518	1
0	2773	918.54353077085	0
0	2802	923.730169026911	1
0	2806	924.647785119517	2
0	2808	924.870967704823	3
0	2810	926.140033699069	2
0	2815	926.43391311836	1
0	2821	927.033788960153	0
0	2829	927.795802095145	1
0	2830	928.957803926569	0
0	2847	934.869495065603	1
0	2849	935.130358158626	2
0	2851	935.319282498074	3
0	2853	936.423145258371	4
0	2855	937.832424569024	5
0	2857	937.990519134375	6
0	2859	941.019515534835	7
0	2864	942.451592780308	6
0	2870	943.810587845219	5
0	2876	945.186197737204	4
0	2883	945.940651466947	5
0	2886	948.136369322738	6
0	2888	948.228924287468	7
0	2890	948.395305568825	8
0	2891	949.662677603176	7
0	2898	951.913229614983	6
0	2903	952.287544590353	5
0	2910	952.611115023472	6
0	2916	958.614464879629	7
0	2917	958.735258438724	6
0	2923	959.009564343493	7
0	2925	960.674839520228	6
0	2930	960.851551890844	5
0	2936	962.787405851631	6
0	2939	963.219948608563	7
0	2943	965.448759565904	6
0	2953	967.831845978045	7
0	2954	968.175731164565	6
0	2960	969.765729020978	5
0	2965	969.959461633524	4
0	2970	975.243577116681	3
0	2975	975.479374777499	2
0	2981	975.511333469492	1
0	2990	976.887250057104	2
0	2993	979.125096450441	1
0	3000	980.145124428386	2
0	3001	980.518663838146	1
0	3006	980.882143351888	0
0	3014	982.87185773256	1
0	3016	984.058291809032	0
0	3023	986.396824862759	1
0	3026	987.284506868497	0
0	3033	988.058059381433	1
0	3034	988.74410543416	0
0	3040	989.775655009932	1
0	3042	991.286372618967	0
0	3066	998.007020211077	1
0	3068	998.999242956686	2
0	3075	1001.486047004078	1
0	3081	1002.632007987021	0
0	3103	1009.67242868804	1
0	3108	1011.70190560396	0
0	3134	1018.54384073046	1
0	3137	1019.589682236566	0
0	3158	1027.505602044971	1
0	3159	1029.068262601876	0
0	3172	1036.103509439229	1
0	3177	1038.389099774038	0
0	3197	1046.860348798905	1
0	3198	1048.156422411134	0
0	3209	1051.576113509972	1
0	3213	1053.09385483912	0
0	3222	1054.613084404369	1
0	3227	1054.862527298356	2
0	3232	1057.507022285476	1
0	3240	1066.05814786358	2
0	3241	1069.865091086647	1
0	3246	1070.133746348551	0
0	3273	1073.678669051976	1
0	3276	1075.55717693109	2
0	3277	1078.647585819058	1
0	3283	1078.895334875226	2
0	3286	1079.646329609755	3
0	3287	1080.030238112024	2
0	3293	1080.261703300311	3
0	3296	1081.402147056335	4
0	3297	1082.17865527899	3
0	3303	1083.364617906789	2
0	3308	1084.02401321165	1
0	3314	1084.200877184896	2
0	3317	1085.816822713216	3
0	3319	1089.179321992605	2
0	3325	1089.635573927176	1
0	3332	1092.041096076581	2
0	3336	1093.948547895684	3
0	3337	1094.410812388711	2
0	3344	1095.607816754378	3
0	3346	1097.150335589657	4
0	3348	1097.377716366229	5
0	3349	1099.402900088614	4
0	3356	1100.193821327593	5
0	3358	1100.983962304049	6
0	3359	1101.740220412861	5
0	3366	1102.751891729575	6
0	3367	1102.895881837362	5
0	3372	1103.048050753435	4
0	3379	1104.828617329865	3
0	3385	1106.997862243633	2
0	3391	1109.350956324747	3
0	3393	1113.323001965971	2
0	3401	1114.471909678963	1
0	3406	1116.890252242098	0
0	3420	1121.965148357441	1
0	3421	1122.828224747316	0
0	3427	1123.322957228677	1
0	3428	1124.134707217968	0
0	3440	1127.767462883347	1
0	3443	1131.685580903658	0
0	3475	1138.134308725452	1
0	3477	1138.83074972412	2
0	3478	1139.732849417553	1
0	3483	1140.067218793377	0
0	3496	1141.565680444365	1
0	3497	1143.504948149299	0
0	3511	1150.041096887507	1
0	3514	1151.686507519706	0
0	3526	1153.797398827602	1
0	3527	1155.129271479336	0
0	3554	1166.043077083238	1
0	3558	1170.744173219468	0
0	3567	1174.939671827681	1
0	3575	1177.492076400876	0
0	3584	1177.716391110054	1
0	3586	1177.806914840214	2
0	3588	1178.413367065776	3
0	3592	1180.493615696443	4
0	3594	1180.574919414913	5
0	3598	1183.287929542084	6
0	3602	1187.702155503404	5
0	3610	1189.965825547039	4
0	3616	1192.113912277261	3
0	3622	1194.182862454907	2
0	3631	1196.127374142508	1
0	3636	1196.672680161202	0
0	3648	1197.099786349131	1
0	3650	1197.24179626926	2
0	3652	1197.737217435238	3
0	3654	1199.493056622523	4
0	3657	1202.21300466688	3
0	3663	1202.763713112975	4
0	3666	1203.416587345616	3
0	3673	1205.147159928201	4
0	3676	1207.216018953815	3
0	3683	1207.942352347105	4
0	3685	1209.033281524302	5
0	3688	1209.330881928608	6
0	3689	1210.535718714742	5
0	3694	1210.868301285006	4
0	3705	1215.760108284759	3
0	3712	1216.138622603032	4
0	3714	1216.26402171276	5
0	3719	1217.985650854172	4
0	3725	1218.046069006443	5
0	3728	1219.38822407474	4
0	3736	1223.134517853627	5
0	3741	1224.464406869479	6
0	3744	1225.571036866731	7
0	3746	1225.722051458119	8
0	3748	1226.114191230073	9
0	3749	1226.32659836739	8
0	3754	1226.6555571851	7
0	3761	1230.039622138127	6
0	3767	1230.955124999727	7
0	3769	1232.783258327569	6
0	3774	1233.140555800199	5
0	3781	1235.063235321938	6
0	3783	1236.028402779153	7
0	3785	1238.21880863225	8
0	3788	1240.300872608603	9
0	3789	1242.835128987493	8
0	3802	1245.410065861117	9
0	3803	1245.460918206163	8
0	3811	1247.654863048493	9
0	3814	1248.270984370676	10
0	3816	1248.665292442484	11
0	3817	1248.897631970942	10
0	3822	1249.350488490632	9
0	3827	1249.684477122411	8
0	3832	1249.848051241158	7
0	3841	1250.832100426699	8
0	3843	1251.386876541402	7
0	3850	1253.896139721462	6
0	3855	1254.365657313043	5
0	3868	1258.564502109094	4
0	3877	1261.965081231571	3
0	3883	1262.579018137919	2
0	3888	1265.696718234888	1
0	3893	1267.074439916891	0
0	3910	1270.578983002749	1
0	3912	1271.079454137236	2
0	3913	1271.647609092434	1
0	3921	1275.459215319896	2
0	3923	1275.798448940277	3
0	3925	1276.303774170537	4
0	3927	1276.819440635056	5
0	3928	1277.459714915209	4
0	3941	1286.296404663067	5
0	3943	1286.677334222006	6
0	3945	1289.25797531967	7
0	3947	1290.109101530148	8
0	3948	1290.318559105475	7
0	3955	1291.22890337941	8
0	3956	1293.862572048104	7
0	3962	1293.985046043989	8
0	3965	1296.435741052873	7
0	3970	1296.530307821727	6
0	3976	1297.312169297998	5
0	3985	1301.780757383373	4
0	3991	1305.044461058722	3
0	3997	1305.091823327957	4
0	3998	1305.493230407976	3
0	4005	1308.918121439126	4
0	4006	1309.087993456493	3
0	4012	1310.978197591844	2
0	4017	1313.154248304096	1
0	4028	1315.038227052829	0
0	4068	1326.012775100196	1
0	4070	1327.244303136626	2
0	4073	1329.653547249684	1
0	4078	1330.134914819487	0
0	4084	1331.08178624412	1
0	4089	1332.304677968059	2
0	4090	1332.442415130168	1
0	4095	1332.785328415705	0
0	4121	1349.862181105901	1
0	4122	1350.787871834785	0
0	4136	1354.290828089418	1
0	4142	1355.509301416665	2
0	4144	1355.984148027601	1
0	4150	1359.429514102343	0
0	4162	1361.855445010613	1
0	4163	1364.528675566473	0
0	4177	1368.144077909882	1
0	4179	1369.047039954685	2
0	4180	1369.939381703837	1
0	4185	1370.261906128683	0
0	4195	1371.042912526005	1
0	4198	1371.805051012656	0
0	4216	1375.966477416712	1
0	4218	1376.36184146014	2
0	4220	1378.185248402247	3
0	4226	1383.439291594201	4
0	4230	1384.621885293348	5
0	4231	1384.956243034504	4
0	4236	1386.088955485392	3
0	4241	1387.189591854943	2
0	4246	1387.821072986547	1
0	4252	1388.47579069052	2
0	4253	1388.888507029037	1
0	4259	1389.00167748779	2
0	4265	1390.080334479877	1
0	4271	1390.736882315564	0
0	4315	1406.660274147704	1
0	4316	1408.139411081363	0
0	4326	1408.834812401755	1
0	4330	1409.366104116629	2
0	4331	1409.480778418827	1
0	4337	1409.75599111658	2
0	4339	1412.158524051779	1
0	4345	1412.303088569098	2
0	4348	1414.551752190072	1
0	4355	1415.571571005837	2
0	4357	1416.964645385894	3
0	4358	1421.51172447985	2
0	4363	1421.559751218461	1
0	4369	1421.840912618298	2
0	4371	1423.361445905348	3
0	4372	1423.387397858428	2
0	4377	1423.597276934772	1
0	4383	1423.913039026564	2
0	4385	1424.334048267408	3
0	4386	1424.367562665477	2
0	4393	1427.283549873561	1
0	4398	1428.948591342989	0
0	4407	1430.494029159362	1
0	4409	1430.818148452166	0
0	4427	1434.989003016456	1
0	4429	1435.551092805926	2
0	4433	1437.44090567246	1
0	4439	1438.563378535195	2
0	4441	1439.130805780914	1
0	4451	1440.770213336793	2
0	4452	1441.217139130565	1
0	4459	1441.842804765298	2
0	4463	1444.314087787488	1
0	4469	1444.714384150574	2
0	4471	1446.904984372099	1
0	4478	1448.390430369665	0
0	4495	1449.222289966458	1
0	4497	1449.49503458732	0
0	4508	1450.1517225618	1
0	4510	1452.122963837943	2
0	4511	1453.194419832057	1
0	4517	1453.931313135708	0
0	4524	1454.363007811841	1
0	4527	1454.667270451827	2
0	4528	1455.580845024381	1
0	4534	1457.165607025356	0
0	4567	1474.519135017738	1
0	4570	1476.561971079285	0
0	4577	1477.183567809887	1
0	4578	1478.8727190091	0
0	4597	1480.229831887013	1
0	4599	1481.038878841463	2
0	4602	1482.687110478024	1
0	4607	1482.744251845338	0
0	4615	1484.100017101984	1
0	4618	1485.242756944017	2
0	4620	1485.637538886575	3
0	4622	1485.684876204481	4
0	4623	1486.368532151123	3
0	4628	1487.248795847035	2
0	4633	1487.315602728013	1
0	4640	1488.538810945025	2
0	4647	1492.680440982664	1
0	4654	1494.358882669485	2
0	4658	1495.801498120904	3
0	4660	1495.938648823259	4
0	4662	1497.596142135748	5
0	4664	1498.509650482122	6
0	4670	1501.21710242037	7
0	4672	1502.385627415495	8
0	4673	1506.232478909189	7
0	4679	1507.013901702901	8
0	4681	1508.095662648954	7
0	4687	1508.353860543685	6
0	4693	1508.51886473035	7
0	4695	1508.870328609554	6
0	4701	1510.068298853104	7
0	4704	1513.743375280676	6
0	4710	1513.945710282372	7
0	4712	1514.013934137882	8
0	4713	1514.176420436266	7
0	4718	1514.779684659854	6
0	4724	1515.232629043524	7
0	4729	1515.330237043925	8
0	4732	1515.61254564381	9
0	4733	1516.045892859747	8
0	4742	1520.012301892655	7
0	4749	1523.494159997734	8
0	4750	1524.632911023011	7
0	4758	1525.561112736494	8
0	4759	1527.478701440086	7
0	4766	1528.282801267286	6
0	4773	1528.893604949955	5
0	4780	1531.399853282796	6
0	4781	1531.899440677505	5
0	4788	1532.673176917315	4
0	4794	1533.01709996801	5
0	4796	1533.268273709512	6
0	4798	1534.078269235676	7
0	4799	1537.555184336869	6
0	4806	1539.912181541699	7
0	4807	1540.071349957866	6
0	4813	1540.585632167815	5
0	4819	1543.214348793071	6
0	4820	1543.382526573487	5
0	4826	1543.636280405774	6
0	4828	1544.507959053463	7
0	4832	1545.63161781154	6
0	4839	1549.456656814818	5
0	4845	1549.769478380368	4
0	4850	1550.695217448503	3
0	4858	1551.419559643751	4
0	4861	1552.076730470252	3
0	4866	1555.359059850715	2
0	4870	1555.734505326813	3
0	4876	1558.113638676023	2
0	4882	1559.529056212536	3
0	4883	1560.495229919869	2
0	4888	1560.68642797039	1
0	4893	1563.161803536851	0
0	4897	1563.400860587863	1
0	4900	1563.94323101022	0
0	4906	1568.53741875179	1
0	4908	1569.372958105196	2
0	4910	1572.862242283764	3
0	4915	1573.467045886514	4
0	4920	1575.952247349817	5
0	4921	1576.236043610719	4
0	4926	1576.330646945896	3
0	4935	1578.144782325975	4
0	4939	1578.347485443229	5
0	4941	1578.769024297708	4
0	4947	1581.555094780973	3
0	4953	1581.777791715698	4
0	4959	1594.3331991171	5
0	4963	1596.130969165217	6
0	4965	1596.138222003753	7
0	4968	1599.660096132777	6
0	4973	1600.244018603847	5
0	4982	1605.015841392695	4
0	4988	1605.482778593287	5
0	4993	1605.941749077851	4
0	4998	1606.912675939932	3
0	5004	1607.271183530837	2
0	5009	1607.580717450488	1
0	5019	1611.746549144315	0
0	5029	1613.648630987092	1
0	5030	1613.980843178561	0
0	5053	1615.396452146265	1
0	5055	1616.560665550599	0
0	5061	1616.747103617368	1
0	5063	1618.945371900158	0
0	5074	1619.237448163952	1
0	5075	1619.277855094573	0
0	5081	1619.358600860705	1
0	5084	1619.767835271781	2
0	5086	1620.126254237972	3
0	5088	1621.085132672429	4
0	5089	1624.337838162063	3
0	5096	1626.047137338955	2
0	5104	1629.189331193853	1
0	5111	1631.00407202841	0
0	5126	1636.700032383192	1
0	5131	1642.082937446825	0
0	5159	1647.082721701865	1
0	5163	1648.326409662612	0
0	5173	1649.015188003843	1
0	5178	1649.798844236376	2
0	5183	1654.416861047675	1
0	5190	1657.709314430411	0
0	5196	1657.915997365675	1
0	5198	1658.214318430405	2
0	5199	1658.893090603188	1
0	5206	1659.261763814887	2
0	5208	1660.811628602176	1
0	5216	1661.136705403929	2
0	5218	1661.812956249658	1
0	5223	1662.015833323503	0
0	5231	1664.284944293883	1
0	5235	1665.449997093074	2
0	5236	1665.82582913696	1
0	5241	1666.304671033874	0
0	5271	1673.396832682844	1
0	5274	1682.194916439994	0
0	5281	1682.651620945411	1
0	5282	1683.623209500188	0
0	5300	1689.678919101888	1
0	5301	1690.071258599379	0
0	5311	1692.997419781738	1
0	5313	1696.062337981676	0
0	5320	1698.447175972789	1
0	5321	1698.868103441032	0
0	5328	1702.184689890286	1
0	5329	1703.485935845017	0
0	5335	1704.621393898766	1
0	5336	1705.959438254763	0
0	5385	1731.214506164521	1
0	5387	1732.220715954951	2
0	5389	1735.428680687668	3
0	5393	1738.090240171966	4
0	5394	1738.96532795337	3
0	5402	1740.317390858576	2
0	5407	1740.613138889201	1
0	5414	1742.424944312341	0
0	5421	1743.453784874577	1
0	5422	1744.699627804085	0
0	5438	1750.418496974561	1
0	5440	1750.422118720424	2
0	5444	1753.776191207784	3
0	5448	1754.07723198825	4
0	5449	1756.33662244898	3
0	5455	1757.521032440727	4
0	5456	1757.780739100376	3
0	5461	1758.555793211107	2
0	5469	1759.618875869634	3
0	5471	1760.692125369253	2
0	5481	1764.100138101881	1
0	5487	1764.696941696804	2
0	5490	1765.582572481075	1
0	5498	1767.17757175054	0
0	5519	1770.483871755511	1
0	5520	1770.930702262348	0
0	5526	1770.960571066539	1
0	5530	1775.084031942063	2
0	5532	1775.817789969484	3
0	5533	1775.852167955631	2
0	5539	1778.428581149567	1
0	5549	1780.163871686781	2
0	5552	1781.165299168499	1
0	5558	1781.861965188112	0
0	5569	1783.377774989151	1
0	5573	1784.77251483309	0
0	5600	1795.522672288704	1
0	5605	1796.247866381918	0
0	5614	1800.262248176635	1
0	5616	1801.43102194611	2
0	5620	1804.181112982065	3
0	5623	1807.861625685371	2
0	5630	1808.24397994026	3
0	5633	1808.573488879176	2
0	5641	1810.376468970844	1
0	5650	1819.165086829475	0
0	5674	1828.132040040077	1
0	5676	1828.216406293351	2
0	5677	1828.676883804443	1
0	5687	1829.752577727155	0
0	5708	1833.736149550667	1
0	5712	1834.315647336882	2
0	5713	1834.404238571367	1
0	5718	1837.003192099706	0
0	5737	1839.967511907494	1
0	5741	1843.80355973816	2
0	5745	1845.556149356135	1
0	5753	1846.132587403901	0
0	5759	1846.953823332601	1
0	5760	1847.605558422855	0
0	5770	1849.851886095905	1
0	5772	1849.875765163136	2
0	5773	1850.212038831579	1
0	5784	1853.506548690161	0
0	5803	1859.477840009663	1
0	5807	1862.756954914064	2
0	5811	1864.907457290282	3
0	5812	1865.402574197293	2
0	5817	1865.528724394903	1
0	5825	1867.268292043962	2
0	5830	1868.540338358325	1
0	5837	1870.833183575676	0
0	5843	1872.653483995475	1
0	5845	1875.012943674569	0
0	5851	1875.073855356138	1
0	5856	1877.389890921041	2
0	5861	1879.877795298192	1
0	5866	1880.839840008042	0
0	5906	1890.675896539987	1
0	5907	1891.02438558123	0
0	5913	1891.914216293884	1
0	5917	1892.401881546525	2
0	5920	1893.066018704251	3
0	5922	1894.582845104282	2
0	5934	1899.349021018327	1
0	5940	1899.418430639804	2
0	5941	1901.608040156647	1
0	5947	1903.623600765416	0
0	5969	1909.511166038123	1
0	5971	1911.093792754256	2
0	5974	1911.821223240018	1
0	5983	1912.399740255348	2
0	5984	1912.726377865433	1
0	5989	1913.253180238573	0
0	5999	1916.144743912666	1
0	6001	1916.874075659796	2
0	6010	1921.334391627645	3
0	6012	1921.854036654571	4
0	6013	1922.632302498891	3
0	6018	1923.348657112949	2
0	6023	1923.942071631993	1
0	6028	1924.541007034256	0
0	6034	1924.935604480314	1
0	6035	1925.17748174074	0
0	6044	1927.206395563825	1
0	6046	1927.737629068545	2
0	6049	1929.352519386805	1
0	6054	1930.13146782475	0
0	6060	1930.490442802921	1
0	6065	1931.07567894895	0
0	6117	1948.599878293103	1
0	6119	1948.909014746846	2
0	6121	1949.027329766427	3
0	6123	1950.10760288558	4
0	6124	1952.064829571932	3
0	6131	1953.86653686706	2
0	6139	1954.385141221117	3
0	6142	1956.269285200002	4
0	6144	1959.460957805233	3
0	6149	1959.488127451432	2
0	6155	1961.135631179011	1
0	6161	1961.139467376378	2
0	6163	1962.773368597725	1
0	6170	1962.98456003339	2
0	6172	1964.245228611353	1
0	6179	1966.755342219555	2
0	6180	1967.05561019064	1
0	6185	1968.285459204714	0
0	6197	1972.685648742383	1
0	6198	1973.605786648003	0
0	6223	1984.141844411471	1
0	6228	1986.249781227671	0
0	6244	1990.831413040354	1
0	6245	1991.366286173338	0
0	6273	2000.012029491635	1
0	6276	2001.235462884085	0
0	6288	2002.924067015055	1
0	6291	2004.078241729621	0
0	6300	2007.819318903736	1
0	6303	2009.314801597329	0
0	6333	2018.612970203406	1
0	6337	2021.837097108411	2
0	6339	2026.352378820466	3
0	6341	2029.272621044621	4
0	6345	2031.772357527785	5
0	6348	2033.762793303225	4
0	6353	2033.930824080775	3
0	6361	2036.859478144158	2
0	6366	2037.125645719989	1
0	6372	2037.443712265614	2
0	6375	2039.416853175405	1
0	6382	2042.284714079649	0
0	6390	2042.559995528217	1
0	6392	2043.417309043251	0
0	6419	2055.976228063385	1
0	6420	2056.570935655051	0
0	6434	2059.199730747418	1
0	6436	2059.628359089458	2
0	6438	2061.444790020616	3
0	6440	2062.426992307421	4
0	6442	2064.290921077795	3
0	6447	2064.82214016237	2
0	6454	2065.017884371813	3
0	6458	2066.870786725921	2
0	6463	2066.91945803676	1
0	6472	2068.64607693384	2
0	6473	2069.602667902172	1
0	6480	2070.949721870643	2
0	6482	2071.51848547077	3
0	6484	2075.873127383797	2
0	6492	2076.649774173761	1
0	6500	2081.271905620101	2
0	6502	2081.325826913769	3
0	6503	2082.103014946057	2
0	6509	2082.772940102037	3
0	6512	2087.550797738535	2
0	6517	2087.574761695301	1
0	6524	2089.562327576761	0
0	6546	2098.156453233444	1
0	6547	2098.635658799842	0
0	6564	2100.407903126048	1
0	6565	2101.001224422049	0
0	6577	2104.959854263846	1
0	6579	2108.197336008896	2
0	6582	2110.454139942561	1
0	6587	2110.466322043122	0
0	6599	2112.242198750956	1
0	6601	2112.286319178069	2
0	6603	2113.385137588301	1
0	6608	2113.41116099949	0
0	6614	2113.716945551227	1
0	6617	2115.250214290607	2
0	6619	2115.600409712268	3
0	6620	2115.967169061393	2
0	6626	2116.342542872837	3
0	6631	2118.592695381621	4
0	6633	2119.002397238697	3
0	6640	2121.121370107758	4
0	6641	2122.654497279943	3
0	6649	2124.905523728507	4
0	6650	2125.471097668452	3
0	6656	2127.247159426891	4
0	6658	2127.89846802093	5
0	6660	2128.746409699675	6
0	6661	2128.813294567081	5
0	6667	2129.140024034148	6
0	6670	2130.635425043463	7
0	6673	2130.903251089714	8
0	6674	2131.008188822283	7
0	6687	2134.272584872858	8
0	6691	2136.07109800876	9
0	6694	2137.691291057807	8
0	6703	2142.286083716557	9
0	6705	2142.886416235697	10
0	6707	2154.009944746922	11
0	6712	2158.20738975649	10
0	6717	2158.473327124023	9
0	6723	2161.481541849221	10
0	6724	2161.749788339855	9
0	6729	2163.135507476197	8
0	6736	2164.16468412108	7
0	6741	2164.535146898097	6
0	6755	2167.047769442214	7
0	6756	2167.333445540606	6
0	6762	2167.749597379785	7
0	6763	2169.462132142365	6
0	6768	2169.699057437327	5
0	6776	2170.761128278045	6
0	6777	2171.403122862266	5
0	6782	2173.633133108017	4
0	6793	2178.748829724658	3
0	6799	2178.767744816263	4
0	6801	2181.012000753008	3
0	6806	2181.22653943725	2
0	6812	2181.23708327401	3
0	6813	2183.027267834005	2
0	6818	2185.296224893141	1
0	6823	2185.820975046329	0
0	6829	2190.526261850408	1
0	6831	2191.196847016235	2
0	6833	2191.451422646296	3
0	6835	2193.762176694786	4
0	6839	2194.786630438926	3
0	6844	2196.033751995094	2
0	6851	2197.099856819881	3
0	6852	2197.638848640301	2
0	6859	2201.545943513114	3
0	6860	2201.570386669549	2
0	6865	2205.245715398198	1
0	6877	2211.357818353441	2
0	6878	2211.618642618561	1
0	6884	2215.001510688479	2
0	6885	2215.062583111079	1
0	6895	2222.080789891103	0
0	6902	2226.375102928402	1
0	6905	2227.458616844572	0
0	6928	2232.989315223861	1
0	6932	2235.72613636396	0
0	6939	2236.52626877547	1
0	6940	2239.362583430825	0
0	6948	2241.400120303824	1
0	6949	2243.366860961913	0
0	6955	2243.416640761121	1
0	6960	2245.585414181369	2
0	6963	2247.058043495293	1
0	6969	2247.571445366447	2
0	6971	2248.050182723807	3
0	6973	2249.317788553185	4
0	6974	2249.442321593923	3
0	6979	2249.752686890778	2
0	6986	2254.609922106372	3
0	6987	2256.006334870233	2
0	6997	2261.572960894394	3
0	6998	2262.445392696473	2
0	7007	2264.537287050102	1
0	7012	2264.698265789586	0
0	7035	2268.781503703689	1
0	7039	2271.426696594863	0
0	7049	2274.350993568706	1
0	7051	2274.385352429189	2
0	7052	2274.504719291858	1
0	7058	2276.701208143597	0
0	7075	2280.185750117595	1
0	7079	2281.160197756573	2
0	7081	2283.43075511297	3
0	7083	2284.204304361153	4
0	7084	2285.042371448974	3
0	7093	2287.09558048518	2
0	7099	2289.460160586557	1
0	7106	2289.644858672953	0
0	7115	2291.172486915766	1
0	7116	2291.592406942422	0
0	7130	2297.614857341699	1
0	7131	2298.557456172511	0
0	7137	2298.591330862284	1
0	7140	2299.559334248152	2
0	7143	2301.19376311879	1
0	7150	2302.251681731176	0
0	7157	2305.076769497809	1
0	7161	2306.64102490316	0
0	7174	2307.859863022819	1
0	7175	2308.043544544153	0
0	7202	2318.516696870211	1
0	7203	2318.943063751612	0
0	7234	2324.302754579405	1
0	7236	2326.92521191621	0
0	7248	2329.425817936968	1
0	7249	2330.66264152664	0
0	7266	2333.703180214404	1
0	7268	2334.524501953444	2
0	7271	2335.754770186748	1
0	7276	2336.209634239156	0
0	7300	2341.50480994261	1
0	7306	2344.823850114114	2
0	7307	2347.810441734676	1
0	7313	2347.947402528931	2
0	7314	2348.001728686023	1
0	7321	2348.562497694825	0
0	7350	2357.98323414651	1
0	7351	2357.98842645116	0
0	7397	2370.882824578593	1
0	7398	2371.676438933425	0
0	7420	2375.090804427901	1
0	7424	2377.796272827349	0
0	7432	2379.076272302051	1
0	7433	2381.990649912716	0
0	7483	2396.529988328731	1
0	7486	2398.017277654271	0
0	7505	2400.744710825088	1
0	7511	2401.632398199258	2
0	7516	2405.373253760856	3
0	7519	2406.531693092506	2
0	7527	2407.823844722334	1
0	7535	2410.640654887325	0
0	7542	2411.067818745319	1
0	7545	2412.148193617009	2
0	7547	2412.738359362427	3
0	7548	2413.277061482064	2
0	7556	2415.353601318682	3
0	7557	2416.230280971773	2
0	7562	2416.343069084691	1
0	7569	2418.491201884842	2
0	7572	2419.047139053898	3
0	7574	2421.261887040026	2
0	7580	2422.544317176295	1
0	7585	2424.194824733716	0
0	7603	2432.755193256909	1
0	7606	2434.094760412806	2
0	7607	2435.628469728901	1
0	7613	2436.181793557118	2
0	7616	2438.404935758877	1
0	7624	2439.233683509474	0
0	7635	2441.665172700521	1
0	7636	2443.926661758694	0
0	7642	2445.469367645459	1
0	7643	2445.848878176401	0
0	7650	2449.245803062832	1
0	7652	2449.634468977046	2
0	7656	2452.095366350594	1
0	7664	2453.369934596307	0
0	7690	2458.210339685242	1
0	7691	2458.617146397683	0
0	7703	2462.514220482247	1
0	7707	2464.45974813479	2
0	7708	2466.006234219991	1
0	7713	2466.370134390708	0
0	7753	2477.416792230521	1
0	7754	2478.015110951491	0
0	7771	2492.166946596325	1
0	7773	2492.879183299631	2
0	7775	2494.118379340562	3
0	7777	2494.829143202634	4
0	7779	2495.254204520588	5
0	7782	2498.748809631708	4
0	7789	2499.672701400044	5
0	7790	2502.193603963979	4
0	7797	2502.659925344873	3
0	7802	2503.147532319842	2
0	7807	2503.207053225781	1
0	7815	2505.221535935214	0
0	7834	2509.236873283921	1
0	7843	2512.457921736462	0
0	7850	2513.310566360327	1
0	7853	2516.105650374856	0
0	7859	2516.347546571528	1
0	7862	2516.761514903844	2
0	7863	2518.206253936976	1
0	7871	2520.070698745005	0
0	7889	2526.472425219688	1
0	7891	2527.231302943304	2
0	7893	2527.733408387039	3
0	7894	2530.866493463097	2
0	7900	2531.527480221369	3
0	7901	2532.290352006562	2
0	7906	2532.311281528046	1
0	7913	2533.490206181412	2
0	7914	2533.74699096544	1
0	7922	2534.782620706147	2
0	7924	2535.313186078317	1
0	7934	2536.612517560797	2
0	7939	2538.082457877213	3
0	7941	2538.584472229958	4
0	7943	2540.499181647136	5
0	7944	2541.564344770098	4
0	7952	2545.821766964698	3
0	7960	2548.76763859776	2
0	7965	2549.718781805429	1
0	7971	2550.414958202341	2
0	7973	2550.817700218972	3
0	7975	2551.896369008265	4
0	7976	2552.586698703198	3
0	7985	2555.165301345705	4
0	7987	2559.112416957725	5
0	7988	2559.978000181621	4
0	7994	2560.354047175451	3
0	8001	2560.809045712258	2
0	8008	2562.443839377848	3
0	8013	2564.182954387461	2
0	8019	2567.608747641892	1
0	8024	2569.103773608125	0
0	8035	2570.653535056376	1
0	8036	2572.543815450553	0
0	8044	2573.932090044667	1
0	8046	2574.38883103354	2
0	8048	2574.857180553569	3
0	8049	2575.259342714213	2
0	8054	2578.619920402641	1
0	8063	2583.989975264325	0
0	8069	2585.726908350856	1
0	8071	2586.096689382732	2
0	8072	2588.756056155417	1
0	8077	2590.182886849027	0
0	8088	2591.066643315482	1
0	8091	2593.626321477399	2
0	8092	2595.03799543306	1
0	8098	2595.104638946585	2
0	8102	2596.074352602363	1
0	8111	2597.309077176381	2
0	8112	2597.717077355005	1
0	8120	2601.087889461381	0
0	8134	2604.282108880591	1
0	8136	2604.639073233541	2
0	8138	2605.346123267438	3
0	8140	2606.048766365911	4
0	8141	2606.407750486303	3
0	8151	2607.965835526915	4
0	8153	2608.339899338886	5
0	8154	2609.810262699482	4
0	8159	2609.930467017611	3
0	8164	2610.112896508593	2
0	8170	2612.663119383603	1
0	8178	2613.476904835824	0
0	8185	2614.092446786604	1
0	8189	2616.669417039124	2
0	8191	2616.791571936164	3
0	8193	2617.630118207172	4
0	8194	2618.198935539793	3
0	8200	2619.356313756037	2
0	8208	2620.586814800638	1
0	8214	2621.044242194577	2
0	8216	2621.435756040902	1
0	8222	2621.946295995779	0
0	8245	2623.602640286712	1
0	8248	2623.946990589301	0
0	8256	2625.439148558737	1
0	8259	2625.940755347477	0
0	8266	2626.643996763378	1
0	8269	2628.719397556544	0
0	8276	2630.184280495123	1
0	8280	2631.032257017317	2
0	8281	2631.800329467845	1
0	8288	2634.83580608256	0
0	8308	2641.205286823503	1
0	8313	2642.685090585215	2
0	8315	2642.830231248756	3
0	8316	2643.211797649871	2
0	8322	2644.177846624549	1
0	8328	2644.214776874239	2
0	8329	2644.240931325058	1
0	8338	2646.761406030957	2
0	8340	2646.78900567517	3
0	8342	2647.002702205835	4
0	8346	2649.382058429792	5
0	8347	2650.245641480005	4
0	8356	2654.176303100031	5
0	8360	2662.193645729403	6
0	8362	2666.568575543699	7
0	8364	2666.661497792352	8
0	8367	2669.803822806528	7
0	8372	2671.694432294605	6
0	8379	2673.380184004898	7
0	8383	2674.688476481465	8
0	8385	2675.775476104736	9
0	8387	2681.103877915978	10
0	8388	2683.40539044747	9
0	8393	2684.805542394538	8
0	8400	2686.47602733821	9
0	8402	2687.8633518919	8
0	8407	2689.154167450029	7
0	8413	2691.660905703368	6
0	8420	2692.767319825525	7
0	8422	2694.07074906445	8
0	8429	2697.695676229187	9
0	8430	2698.498393792034	8
0	8435	2698.498475778543	7
0	8441	2698.616017052708	8
0	8442	2699.571991874707	7
0	8448	2700.358659333525	6
0	8454	2703.513083454804	5
0	8459	2703.885375576005	4
0	8464	2704.498324279905	3
0	8468	2705.665981952997	4
0	8473	2710.17467214979	3
0	8484	2713.157259731899	4
0	8485	2714.092018140308	3
0	8491	2716.215964538788	2
0	8496	2716.249582312295	1
0	8502	2720.1600436449	2
0	8504	2720.243081090709	3
0	8508	2723.753519211091	2
0	8514	2724.475315793544	3
0	8517	2726.341399787584	2
0	8534	2736.801802248858	1
0	8541	2742.300709877438	2
0	8542	2743.498168509506	1
0	8549	2746.868411007127	2
0	8551	2747.387053701849	3
0	8554	2747.778542401837	2
0	8559	2747.800001329514	1
0	8566	2750.332425150234	0
0	8578	2751.228463231425	1
0	8579	2751.693431820956	0
0	8628	2762.717441916286	1
0	8629	2764.046083327558	0
0	8637	2766.116172905996	1
0	8638	2766.395107704064	0
0	8660	2776.464290093848	1
0	8662	2778.483320665515	2
0	8663	2780.024177759427	1
0	8668	2780.907358134216	0
0	8681	2783.682687986278	1
0	8683	2786.384799160417	0
0	8691	2790.69119863102	1
0	8692	2792.011567828461	0
0	8698	2792.068087338856	1
0	8700	2793.321958908373	0
0	8706	2793.801297361148	1
0	8707	2794.203998759884	0
0	8732	2800.244522855338	1
0	8735	2803.471451525005	0
0	8769	2824.461309469342	1
0	8770	2826.556638050001	0
0	8779	2826.641847062642	1
0	8781	2826.954294838471	2
0	8785	2828.835077850863	3
0	8791	2832.755403021823	2
0	8797	2832.92410176828	3
0	8801	2834.513413710534	4
0	8802	2836.060154967461	3
0	8807	2836.882460136805	2
0	8812	2838.170937478174	1
0	8819	2839.520171315922	0
0	8825	2839.553862603503	1
0	8830	2840.436302361723	0
0	8839	2842.804134954105	1
0	8840	2843.323380383837	0
0	8855	2847.610580614171	1
0	8858	2848.83786745241	0
0	8865	2850.15118230433	1
0	8867	2851.349029121611	2
0	8869	2853.042024528549	3
0	8872	2854.22668354478	2
0	8878	2854.275861580759	3
0	8881	2855.522039382158	4
0	8882	2855.546855984154	3
0	8889	2858.576108606882	2
0	8894	2860.020665308419	1
0	8902	2860.320928390096	2
0	8903	2860.780865543588	1
0	8908	2861.190550077912	0
0	8934	2864.177866224869	1
0	8936	2864.594341366037	0
0	8953	2869.363745673435	1
0	8956	2870.416982813279	0
0	8968	2875.406398994004	1
0	8969	2876.084024381308	0
0	8976	2877.560099010147	1
0	8977	2881.797362268376	0
0	8987	2887.364380143045	1
0	8993	2888.943297133078	2
0	8995	2889.324125941893	3
0	8997	2890.479482840052	4
0	8999	2890.835934061473	5
0	9000	2890.909418489341	4
0	9006	2894.665506896007	3
0	9012	2894.985749912299	4
0	9014	2896.328887426529	5
0	9015	2896.599853358485	4
0	9022	2898.585163008044	3
0	9028	2898.599195012304	4
0	9029	2899.779350388441	3
0	9034	2899.808503254961	2
0	9039	2900.268864218769	1
0	9044	2902.325434165572	0
0	9050	2903.215782016422	1
0	9053	2903.891147534774	2
0	9055	2904.819480449778	1
0	9061	2904.898927205617	2
0	9063	2908.051089271953	3
0	9064	2908.074140187989	2
0	9069	2908.35001885419	1
0	9075	2910.173959956849	2
0	9080	2912.607510756333	3
0	9082	2912.729416386754	4
0	9085	2913.886008115984	5
0	9089	2915.39251289699	6
0	9090	2916.106859935996	5
0	9096	2916.334918050259	6
0	9097	2916.358519844856	5
0	9102	2916.779674988606	4
0	9108	2918.944502522449	3
0	9114	2920.453423124631	2
0	9120	2922.703472384754	3
0	9122	2926.214582885803	2
0	9128	2926.413389968739	3
0	9134	2931.500170368908	2
0	9141	2932.950400192172	1
0	9147	2933.166638597079	2
0	9148	2933.323618427211	1
0	9157	2936.950134353927	0
0	9171	2943.484791461415	1
0	9172	2947.267503802586	0
0	9185	2951.980401665303	1
0	9186	2952.065846170166	0
0	9201	2955.060602574929	1
0	9202	2955.282079874257	0
0	9208	2956.109668127022	1
0	9209	2958.18221049751	0
0	9215	2959.318240992819	1
0	9216	2959.392703312424	0
0	9223	2960.367504815981	1
0	9224	2960.388312672556	0
0	9231	2961.278717801301	1
0	9234	2962.281000496933	0
0	9240	2962.885584035624	1
0	9241	2963.226806179608	0
0	9255	2966.527971090036	1
0	9261	2969.484802362196	0
0	9290	2978.643128561269	1
0	9291	2978.90574544552	0
0	9300	2987.079093440228	1
0	9301	2988.772322659189	0
0	9313	2991.861005645147	1
0	9315	2993.508957477999	2
0	9318	2994.762717069737	1
0	9324	2995.859383669154	0
0	9334	2996.720977872446	1
0	9336	2996.804948695528	2
0	9339	2998.59015549057	1
0	9344	2998.727684120809	0
0	9352	3000.114269128427	1
0	9356	3003.002926689218	0
0	9362	3003.236702839449	1
0	9365	3004.331051250266	0
0	9402	3011.368916145893	1
0	9403	3011.489693605681	0
0	9413	3013.040641726167	1
0	9414	3013.126905393471	0
0	9426	3015.160162983791	1
0	9427	3015.361536946915	0
0	9461	3024.097483822096	1
0	9464	3026.295233888279	0
0	9475	3030.902967983907	1
0	9476	3031.56896955795	0
0	9492	3040.623532526501	1
0	9497	3043.402721652204	0
0	9507	3045.548042516134	1
0	9508	3046.303685665631	0
0	9514	3046.510521607775	1
0	9516	3046.804163293292	2
0	9519	3047.473592074417	3
0	9522	3048.00400671329	2
0	9528	3049.731639596326	1
0	9534	3049.97521333992	2
0	9536	3050.059597842465	3
0	9538	3050.4567894862	2
0	9543	3051.226578039651	1
0	9548	3052.057252735512	0
0	9554	3052.576089710779	1
0	9557	3053.868915346355	2
0	9564	3054.702690730639	3
0	9566	3056.223712819332	2
0	9575	3057.457042098564	1
0	9582	3058.772941544545	0
0	9600	3059.717170983802	1
0	9603	3061.384011749288	2
0	9604	3062.754886046478	1
0	9609	3064.754771497194	0
0	9630	3067.640456634031	1
0	9632	3072.783306873403	0
0	9639	3074.228113497517	1
0	9642	3076.224877485576	0
0	9648	3077.322982066328	1
0	9651	3077.393426663058	2
0	9653	3077.542978073563	3
0	9656	3082.037455179866	2
0	9661	3082.206774167305	1
0	9670	3085.7562421042	0
0	9692	3091.962085997055	1
0	9693	3092.878998724557	0
0	9705	3098.836702797694	1
0	9707	3098.932780578295	2
0	9709	3100.037491888863	3
0	9710	3100.276146436696	2
0	9715	3102.227424512562	1
0	9721	3102.245258750918	2
0	9722	3104.025015759049	1
0	9735	3108.628535438022	2
0	9737	3108.731581342555	3
0	9738	3111.129508550514	2
0	9743	3112.359201984942	1
0	9748	3112.46274360262	0
0	9760	3113.992712989562	1
0	9761	3114.279390563228	0
0	9770	3115.663643698114	1
0	9775	3118.325770205414	0
0	9791	3121.499973833042	1
0	9792	3121.590727134321	0
0	9806	3122.211958274931	1
0	9811	3123.026935649075	2
0	9818	3127.849840700496	1
0	9823	3128.966048158919	0
0	9830	3130.707617749292	1
0	9831	3131.06150634751	0
0	9852	3140.51658909593	1
0	9856	3142.064146303339	2
0	9859	3144.526547236154	1
0	9864	3145.511761125512	0
0	9881	3152.113962772583	1
0	9887	3158.908430839617	2
0	9888	3159.649162417879	1
0	9900	3162.249610406422	0
0	9910	3165.010432348108	1
0	9912	3167.205258986161	2
0	9918	3171.739355287493	3
0	9922	3178.08732874645	4
0	9923	3178.615109941515	3
0	9929	3180.053683873249	4
0	9933	3181.62443444835	3
0	9941	3182.488484697595	2
0	9950	3185.240100659415	1
0	9955	3185.435402524421	0
0	9977	3187.915133219212	1
0	9983	3193.271783740668	2
0	9984	3193.582147397937	1
0	9990	3193.918831553464	2
0	9991	3195.140037572016	1
0	9999	3197.161909148045	2
0	10001	3197.728686782695	3
0	10002	3198.751444943483	2
0	10011	3199.530395866592	1
0	10018	3200.445025602847	0
0	10024	3200.939308122189	1
0	10025	3202.752263649636	0
0	10051	3211.307851980565	1
0	10054	3212.6081728349	0
0	10060	3213.555108304359	1
0	10062	3213.83536634286	0
0	10075	3215.565483607273	1
0	10076	3216.05787083254	0
0	10087	3217.383083428149	1
0	10089	3220.167350758652	2
0	10095	3223.397013616101	3
0	10096	3224.677048892539	2
0	10101	3225.177361956242	1
0	10110	3228.672944308178	0
0	10116	3229.091776602237	1
0	10117	3229.521406304752	0
0	10126	3234.147138930398	1
0	10128	3234.484848572959	2
0	10135	3237.76500848094	1
0	10141	3237.886982782475	2
0	10143	3240.55508628069	1
0	10149	3240.634274504091	2
0	10151	3242.059475687256	1
0	10157	3242.181619156074	2
0	10159	3243.160802480866	1
0	10165	3245.24486756268	0
0	10191	3252.628793142049	1
0	10196	3257.784340103002	0
0	10206	3259.891580704992	1
0	10208	3261.591179053074	2
0	10218	3268.879769007632	1
0	10224	3269.332957861188	0
0	10233	3270.000722027292	1
0	10236	3270.588169291949	0
0	10249	3273.530279388681	1
0	10250	3274.622741510125	0
0	10273	3277.999001622305	1
0	10274	3278.998000755041	0
0	10296	3281.112923026923	1
0	10300	3281.819887121165	2
0	10301	3284.243958992014	1
0	10307	3285.487053560698	2
0	10308	3285.959637824288	1
0	10314	3286.696679378985	0
0	10320	3288.402812849599	1
0	10323	3292.205538413804	0
0	10337	3295.952045652386	1
0	10338	3297.664239861828	0
0	10377	3307.905170835988	1
0	10380	3308.505565614025	0
0	10392	3312.932442991494	1
0	10394	3313.185354129662	2
0	10395	3315.948867161678	1
0	10401	3319.807034757776	2
0	10403	3324.108402898006	1
0	10410	3324.315210033012	2
0	10413	3327.142952027044	3
0	10416	3331.106139990847	4
0	10417	3332.107523568971	3
0	10424	3337.401490820786	4
0	10428	3338.296214967933	5
0	10432	3340.19951990342	6
0	10433	3341.259855503639	5
0	10439	3341.310967339909	6
0	10443	3342.771736934679	5
0	10451	3343.61138330316	6
0	10455	3347.555506038534	7
0	10456	3349.232666488233	6
0	10464	3352.289146124973	5
0	10471	3352.706107711755	6
0	10472	3355.382993344567	5
0	10477	3355.65000380813	4
0	10485	3356.775063367775	5
0	10489	3358.007083844304	6
0	10490	3358.719524044302	5
0	10496	3359.243861678371	4
0	10501	3359.833769569564	3
0	10511	3362.842180578423	4
0	10514	3364.515763408885	5
0	10515	3367.163354823944	4
0	10520	3368.480904479943	3
0	10526	3368.531898132303	4
0	10527	3368.603050233864	3
0	10533	3369.487763615964	4
0	10536	3369.99323451236	3
0	10542	3370.18911866201	4
0	10548	3372.995844104284	5
0	10549	3373.114844554751	4
0	10554	3374.036086784807	3
0	10560	3374.648950479815	4
0	10564	3376.643548471047	5
0	10567	3377.719544082793	6
0	10570	3378.039426568763	5
0	10578	3379.517596254484	4
0	10584	3379.818810592738	5
0	10586	3380.435631218772	4
0	10591	3380.758431367688	3
0	10598	3381.225256487296	4
0	10602	3382.143539872764	3
0	10608	3382.515586206445	4
0	10610	3382.801559199042	5
0	10613	3384.966670146446	6
0	10615	3385.135755544199	7
0	10617	3385.48296840098	8
0	10619	3385.904960893876	9
0	10621	3386.299444930119	10
0	10622	3388.612624559197	9
0	10633	3389.755922057656	10
0	10634	3391.518273686942	9
0	10640	3395.317283142144	8
0	10646	3397.108735971188	7
0	10659	3398.616980415153	8
0	10661	3403.485496725984	9
0	10663	3403.6868957159	10
0	10664	3404.283813072192	9
0	10669	3405.338683801905	8
0	10674	3405.685292316238	7
0	10680	3406.527204057477	6
0	10688	3411.095930394252	5
0	10694	3414.012096817228	4
0	10700	3414.67531393156	3
0	10708	3415.479490199136	2
0	10715	3416.331053762374	3
0	10720	3418.36137594993	2
0	10725	3418.963725952069	1
0	10730	3419.190069275047	0
0	10736	3420.766102177041	1
0	10737	3420.877364258428	0
0	10762	3430.393804795531	1
0	10763	3431.036656859968	0
0	10769	3431.091653309415	1
0	10774	3432.979382447082	2
0	10777	3433.454084065559	1
0	10782	3434.300501963779	0
0	10813	3444.606385812943	1
0	10815	3444.682428646505	2
0	10818	3451.312509645804	1
0	10823	3451.586588173257	0
0	10829	3451.728812589978	1
0	10832	3454.080942299769	2
0	10835	3457.664485760053	3
0	10836	3458.333854466279	2
0	10842	3459.070549545872	3
0	10844	3461.24116731461	4
0	10845	3461.602010792673	3
0	10850	3462.041355690513	2
0	10856	3466.304280534292	1
0	10861	3467.823909263167	0
0	10884	3472.195808916072	1
0	10885	3473.840791311355	0
0	10891	3473.98650712137	1
0	10894	3474.836168205495	0
0	10901	3476.008957459595	1
0	10904	3477.064314717679	2
0	10906	3477.861327790847	3
0	10907	3481.854717224226	2
0	10912	3482.076555049729	1
0	10917	3482.104618565456	0
0	10943	3489.894471276519	1
0	10944	3491.667067446407	0
0	10951	3492.648270815059	1
0	10953	3494.048451045926	0
0	10967	3497.803017540583	1
0	10973	3500.983200219183	2
0	10975	3503.030998948728	3
0	10976	3503.087144434694	2
0	10981	3503.529552963353	1
0	10994	3505.988546442242	2
0	10998	3507.913431285094	3
0	10999	3508.374482671289	2
0	11007	3511.688378270579	1
0	11013	3514.350330337366	0
0	11027	3516.709404973214	1
0	11028	3519.227408786196	0
0	11040	3522.323974544751	1
0	11041	3522.775810151984	0
0	11057	3524.761747772246	1
0	11060	3526.417015862021	2
0	11063	3528.628245019496	1
0	11068	3529.933203513438	0
0	11075	3530.863351530528	1
0	11078	3533.618919042329	0
0	11087	3536.144857611907	1
0	11088	3536.222433847845	0
0	11159	3566.201346507067	1
0	11166	3570.435381799572	0
0	11173	3572.178448575815	1
0	11174	3573.069905884161	0
0	11185	3576.048119140772	1
0	11188	3577.227429025123	2
0	11194	3579.798161746902	3
0	11198	3581.574710628046	4
0	11199	3582.169419939732	3
0	11204	3582.471706666872	2
0	11209	3585.231260005394	1
0	11215	3585.59628340412	2
0	11218	3586.73220101503	1
0	11225	3588.624704681878	0
0	11239	3590.508693414925	1
0	11242	3592.997149414126	0
0	11254	3593.680432791564	1
0	11256	3594.673414183546	2
0	11257	3596.762551786416	1
0	11264	3601.131340410846	2
0	11265	3601.609908828941	1
0	11271	3601.809730995152	2
0	11272	3604.410915694716	1
0	11279	3605.880166498691	2
0	11281	3606.278302021173	3
0	11282	3607.236850017558	2
0	11289	3609.816703653977	1
0	11295	3610.375395336356	2
0	11297	3610.579010230717	3
0	11302	3612.321094207838	2
0	11310	3613.697693627678	1
0	11316	3613.801374873793	2
0	11318	3614.135639705252	3
0	11321	3617.800994870264	4
0	11322	3618.521159334946	3
0	11330	3621.124327758795	2
0	11337	3622.009294599226	1
0	11343	3622.405880349168	2
0	11344	3622.433843063819	1
0	11349	3623.554929663642	0
0	11355	3623.804613431763	1
0	11357	3625.01889169749	2
0	11359	3625.371615699231	1
0	11364	3625.746557993921	0
0	11370	3626.306433714056	1
0	11371	3626.68642662386	0
0	11381	3628.87460516549	1
0	11390	3634.620299997757	0
0	11420	3637.633105943504	1
0	11424	3640.081591959015	2
0	11425	3641.129871556157	1
0	11432	3642.646023705429	0
0	11444	3643.098264344819	1
0	11446	3648.080940410562	0
0	11453	3651.062959710737	1
0	11455	3651.898832542082	2
0	11456	3653.240386032055	1
0	11461	3653.422846295706	0
0	11481	3658.12174799985	1
0	11483	3659.085382647838	2
0	11486	3660.081795622943	1
0	11495	3664.221025981747	0
0	11514	3666.756935063281	1
0	11516	3668.124795348769	0
0	11546	3678.687489630294	1
0	11548	3679.261536503736	2
0	11550	3679.830195103585	3
0	11554	3680.332793495257	4
0	11556	3680.629021855522	5
0	11558	3682.372885647232	6
0	11559	3685.068436262036	5
0	11564	3685.099440346963	4
0	11569	3685.942481653384	3
0	11581	3688.895775590146	4
0	11582	3688.990054456289	3
0	11588	3688.997291795696	4
0	11589	3689.01376273438	3
0	11596	3689.937563723977	2
0	11602	3690.342821667994	1
0	11611	3691.65146281268	2
0	11615	3693.930405953482	1
0	11620	3693.945493582487	0
0	11637	3697.587156362678	1
0	11639	3697.704728394779	2
0	11642	3700.768492849259	3
0	11643	3700.87747590864	2
0	11648	3702.026311880863	1
0	11654	3704.192325848078	0
0	11666	3705.928246555979	1
0	11669	3707.59609489311	2
0	11670	3707.866828207255	1
0	11678	3710.601038764518	0
0	11685	3713.301386149766	1
0	11686	3714.450033216815	0
0	11692	3714.899848438572	1
0	11693	3715.290097882526	0
0	11706	3717.243171850265	1
0	11707	3717.880638619069	0
0	11713	3718.150326493293	1
0	11715	3718.336553685686	2
0	11717	3721.486434794637	3
0	11724	3725.447791762906	4
0	11725	3726.59241782581	3
0	11731	3726.995450441712	4
0	11737	3728.616383738684	5
0	11740	3730.07128864219	6
0	11743	3736.040100098753	5
0	11748	3736.156134468029	4
0	11755	3736.918137646581	5
0	11756	3737.13169437369	4
0	11763	3739.153558635443	3
0	11768	3739.41218066961	2
0	11773	3739.839624126854	1
0	11780	3741.470952552522	2
0	11784	3742.210630818775	1
0	11789	3742.356179231274	0
0	11795	3742.738076056862	1
0	11800	3746.489123740251	0
0	11806	3746.731039894046	1
0	11807	3749.220799187624	0
0	11814	3749.896762928938	1
0	11819	3750.555313258663	0
0	11828	3754.643165064715	1
0	11829	3755.640555601908	0
0	11845	3758.709986291373	1
0	11847	3762.741999662605	0
0	11854	3764.485410885621	1
0	11855	3765.985908295238	0
0	11876	3772.380555994361	1
0	11877	3772.492805095129	0
0	11889	3775.959663841566	1
0	11890	3776.404477963643	0
0	11901	3777.688549934469	1
0	11903	3778.021051324281	2
0	11905	3778.219981556712	3
0	11906	3778.360217818658	2
0	11912	3779.387811272137	3
0	11913	3779.573673586768	2
0	11924	3781.281577281011	3
0	11927	3781.7395756923	4
0	11931	3783.403036578146	3
0	11938	3783.469383609598	4
0	11940	3783.761123351202	5
0	11942	3786.379866875844	6
0	11943	3786.797685465548	5
0	11949	3789.774740020002	4
0	11954	3790.240301121848	3
0	11960	3792.028808220922	4
0	11963	3792.546435876517	3
0	11968	3792.744254268882	2
0	11974	3794.425895593555	1
0	11979	3794.503362364485	0
0	11992	3796.353320626691	1
0	11994	3796.554843275195	0
0	12005	3800.786106836108	1
0	12009	3804.344891801857	0
0	12054	3813.86253810457	1
0	12058	3819.310592418129	2
0	12060	3819.740797706768	3
0	12063	3820.243847558202	2
0	12069	3820.659523070901	3
0	12071	3822.542578370104	2
0	12076	3822.593770713014	1
0	12082	3822.719885890095	2
0	12083	3823.391012762241	1
0	12091	3824.38407948571	2
0	12092	3825.077451246239	1
0	12098	3826.38846430937	0
0	12119	3832.063249677737	1
0	12121	3833.744814243302	0
0	12128	3837.177705759141	1
0	12131	3838.707715549178	0
0	12159	3851.285345108211	1
0	12161	3851.290189427728	2
0	12163	3851.994951136387	3
0	12167	3854.140584699479	4
0	12168	3854.619394369201	3
0	12175	3855.73998198418	4
0	12176	3855.795895564393	3
0	12184	3856.80792904965	4
0	12187	3857.626251391275	3
0	12194	3858.611372029649	4
0	12198	3860.802742790724	5
0	12199	3861.410975644846	4
0	12204	3862.043470238934	3
0	12212	3862.736657312255	4
0	12214	3864.828879924419	3
0	12221	3869.113480168536	2
0	12228	3871.202195748423	1
0	12234	3871.333620430871	2
0	12236	3871.470488949477	3
0	12239	3873.513311770155	4
0	12240	3874.487158380758	3
0	12246	3876.247475251795	2
0	12252	3876.97922982583	1
0	12260	3878.621568620048	2
0	12261	3882.326411380368	1
0	12268	3886.320493032678	2
0	12271	3887.671576284276	1
0	12277	3888.271572036059	2
0	12278	3888.566927082377	1
0	12286	3890.89469889111	0
0	12305	3893.816830107809	1
0	12309	3895.766656120764	2
0	12311	3895.907099541198	3
0	12312	3896.841349980287	2
0	12317	3896.983124718897	1
0	12322	3897.110756290108	0
0	12340	3902.621114335769	1
0	12343	3909.549199188826	0
0	12354	3911.493005020493	1
0	12356	3912.31637454966	0
0	12374	3915.521262016746	1
0	12375	3915.802787063231	0
0	12383	3917.636033862409	1
0	12386	3918.419447964822	0
0	12398	3919.955113252892	1
0	12399	3920.297473588446	0
0	12433	3930.308740014478	1
0	12438	3935.731059333641	0
0	12453	3942.673634576149	1
0	12456	3948.70909260264	0
0	12481	3954.951707598798	1
0	12483	3955.220698591427	2
0	12485	3956.081072932226	3
0	12488	3959.544402535051	2
0	12493	3959.566308857104	1
0	12498	3960.295368207248	0
0	12518	3966.751310986331	1
0	12520	3968.52760447893	2
0	12522	3969.117523529774	3
0	12528	3973.072775899706	2
0	12534	3975.667502973647	1
0	12541	3978.629507309	0
0	12552	3979.775837229013	1
0	12553	3980.993074592757	0
0	12578	3992.53933041462	1
0	12579	3993.264791242349	0
0	12592	3996.501678950748	1
0	12594	3998.80483865189	2
0	12595	4002.217802452607	1
0	12604	4004.665054268273	0
0	12611	4007.771944208275	1
0	12614	4008.10669628255	2
0	12617	4011.687312558745	1
0	12624	4012.626798460593	0
0	12653	4020.361128415383	1
0	12655	4021.157943752493	2
0	12659	4021.975738709129	3
0	12661	4023.851849620596	4
0	12662	4024.217484613402	3
0	12670	4029.295406622095	2
0	12676	4030.890486782209	3
0	12677	4031.121492095923	2
0	12689	4032.465507020966	3
0	12693	4033.812155740289	4
0	12694	4035.282039102124	3
0	12702	4036.260943744173	2
0	12708	4036.669790299063	3
0	12709	4036.917302339516	2
0	12715	4037.80142161681	1
0	12721	4038.569618930368	0
0	12727	4038.640343873825	1
0	12729	4039.305154890365	2
0	12731	4041.502499406191	1
0	12737	4043.914715641812	0
0	12760	4050.357395911828	1
0	12761	4050.423565667351	0
0	12773	4052.192191434894	1
0	12774	4052.364835886001	0
0	12795	4060.075310579062	1
0	12796	4060.398940211554	0
0	12822	4068.573064688776	1
0	12824	4068.984720850197	2
0	12827	4069.605323276975	1
0	12833	4070.409322414625	0
0	12852	4075.039108861469	1
0	12856	4076.597795501944	2
0	12858	4076.856090461573	3
0	12866	4087.731336094448	4
0	12867	4088.239481040902	3
0	12873	4089.009397689927	2
0	12879	4089.994540405844	3
0	12880	4090.879040215984	2
0	12885	4091.031575847057	1
0	12891	4091.454502218549	2
0	12894	4095.089411951079	1
0	12899	4095.250647417284	0
0	12905	4096.82309957593	1
0	12907	4098.80079876879	2
0	12909	4099.165296753906	3
0	12911	4099.523535576999	4
0	12917	4105.412013192253	3
0	12928	4116.808055073181	4
0	12933	4120.839992624741	5
0	12939	4122.806174432782	6
0	12943	4123.708428306878	7
0	12948	4126.276606586389	8
0	12949	4127.038056740639	7
0	12955	4127.785941340261	6
0	12964	4129.901738359998	7
0	12967	4130.451801978152	8
0	12968	4131.439238331469	7
0	12976	4138.525628345387	6
0	12984	4141.103765216841	5
0	12989	4141.543159294845	4
0	12995	4143.969202162765	5
0	12997	4147.620067529046	6
0	13001	4150.277399700474	7
0	13002	4151.229941054386	6
0	13009	4156.893239638891	5
0	13014	4156.943252248896	4
0	13024	4158.290441890711	5
0	13027	4160.499166750613	4
0	13038	4168.010381202426	3
0	13045	4168.688758572169	2
0	13050	4168.718151123214	1
0	13055	4169.549762043626	0
0	13083	4172.487845369787	1
0	13085	4172.788806782456	2
0	13089	4174.385972414016	1
0	13094	4174.747419697978	0
0	13109	4178.391363455745	1
0	13111	4181.166705028649	2
0	13112	4182.563070042801	1
0	13117	4182.929154951974	0
0	13124	4183.847968499886	1
0	13126	4186.174783803591	0
0	13132	4186.619235759589	1
0	13134	4187.863530039875	2
0	13139	4189.793025063284	3
0	13141	4190.378158337135	4
0	13143	4193.508247142577	5
0	13144	4195.269447207523	4
0	13150	4195.890188183957	3
0	13158	4198.545246144866	2
0	13166	4199.796797931555	3
0	13169	4201.74960832138	2
0	13175	4202.077469411263	3
0	13178	4204.222456273666	2
0	13186	4207.846399091373	3
0	13188	4212.397720279537	2
0	13193	4212.55223645375	1
0	13199	4213.550693545545	2
0	13201	4214.864402322607	1
0	13208	4216.038314693186	0
0	13233	4218.305921023355	1
0	13239	4219.369359749581	2
0	13242	4220.548779178408	1
0	13250	4223.711872369471	2
0	13252	4226.699536107027	3
0	13253	4229.907330841179	2
0	13259	4230.018005205614	1
0	13264	4230.138369041612	0
0	13300	4238.987163155587	1
0	13303	4240.017046844276	0
0	13314	4243.730745133033	1
0	13315	4245.612463980466	0
0	13331	4250.30410170277	1
0	13332	4250.832069181419	0
0	13339	4251.349801125066	1
0	13341	4251.401952405706	2
0	13342	4253.928032291942	1
0	13349	4254.022422666508	2
0	13350	4254.742259782477	1
0	13356	4255.082226306597	2
0	13359	4257.824044223092	1
0	13367	4262.873376600558	2
0	13368	4264.328745514342	1
0	13374	4264.493932825457	2
0	13376	4266.173682135661	1
0	13383	4268.185337203889	2
0	13384	4268.357050153999	1
0	13389	4268.832314929973	0
0	13396	4269.092720954219	1
0	13398	4269.605058116492	2
0	13400	4276.208205115659	1
0	13405	4276.396057382074	0
0	13419	4280.875266146696	1
0	13421	4283.422267476285	0
0	13446	4290.804831951996	1
0	13447	4291.143817061962	0
0	13481	4305.54601153786	1
0	13489	4309.87605902287	2
0	13490	4312.981258271188	1
0	13496	4314.934996032106	2
0	13498	4315.279230737703	3
0	13500	4315.357848127474	4
0	13503	4320.092861657847	5
0	13505	4321.053620687545	6
0	13506	4322.177220587568	5
0	13512	4322.917940620379	6
0	13513	4324.151758320683	5
0	13519	4325.016437248508	4
0	13524	4325.5579406784	3
0	13530	4326.389353074136	4
0	13532	4327.653870973159	5
0	13533	4328.593448977498	4
0	13542	4333.497865771745	5
0	13544	4334.557172679623	4
0	13553	4337.185615111453	5
0	13556	4338.461140347137	6
0	13560	4339.666245540675	7
0	13564	4343.614973641015	8
0	13566	4343.758228716188	9
0	13567	4345.149103358507	8
0	13572	4345.562058125582	7
0	13580	4347.9368147883	6
0	13588	4349.879712774216	7
0	13590	4350.371842432688	6
0	13595	4352.279227914423	5
0	13600	4352.577483932689	4
0	13607	4353.507696778863	3
0	13615	4356.4759896069	4
0	13617	4358.743716565025	3
0	13622	4359.126377625171	2
0	13627	4359.982837234636	1
0	13632	4361.190362901767	0
0	13652	4370.269077824094	1
0	13653	4370.712151772051	0
0	13688	4383.281354289788	1
0	13690	4385.319638643964	2
0	13692	4385.842827525307	3
0	13694	4390.44078128358	4
0	13695	4390.534157012469	3
0	13700	4390.902922274031	2
0	13707	4391.749856709527	3
0	13709	4394.355101616681	2
0	13715	4394.859519325616	3
0	13718	4397.150780279495	2
0	13727	4400.740865147318	3
0	13731	4402.840248694336	2
0	13737	4403.007859663102	3
0	13740	4404.975206979575	4
0	13742	4405.210106512825	5
0	13745	4406.47009751148	4
0	13750	4406.589654577712	3
0	13755	4407.531342150634	2
0	13761	4409.546067275516	1
0	13768	4409.653697675268	2
0	13769	4410.175667204039	1
0	13774	4411.289535224886	0
0	13798	4413.847330078689	1
0	13800	4414.006633983011	2
0	13802	4414.378469855037	3
0	13808	4416.425854759568	4
0	13818	4422.013864062606	3
0	13823	4422.373247417326	2
0	13830	4428.152711135285	1
0	13836	4428.361866399373	0
0	13856	4433.286082035787	1
0	13861	4435.967496478605	0
0	13889	4444.172403276123	1
0	13890	4446.633153921897	0
0	13896	4447.253502654537	1
0	13899	4452.183107169416	0
0	13906	4453.281721273937	1
0	13907	4453.779483539359	0
0	13913	4453.935903550187	1
0	13915	4454.543536262057	0
0	13936	4460.040134340372	1
0	13939	4462.83103610461	0
0	13951	4468.027176618418	1
0	13953	4469.133428052958	0
0	13968	4470.69180319668	1
0	13974	4475.069582542204	0
0	13994	4484.353462728157	1
0	13998	4485.452850301555	2
0	14002	4487.176362563127	3
0	14006	4490.616709904654	2
0	14012	4491.941266768188	3
0	14015	4493.473119572567	4
0	14016	4493.773307643394	3
0	14024	4496.584375066577	2
0	14029	4497.497712867644	1
0	14034	4497.591339492617	0
0	14062	4507.982648077098	1
0	14067	4513.031833087173	0
0	14074	4516.909777896257	1
0	14075	4517.199536002964	0
0	14096	4520.117732849204	1
0	14099	4521.577049183831	0
0	14116	4525.667171560415	1
0	14119	4527.043313941734	0
0	14132	4530.678338814355	1
0	14135	4530.95525984428	0
0	14142	4532.496408048317	1
0	14144	4534.28629015393	2
0	14145	4534.345561971996	1
0	14151	4539.071097735882	0
0	14157	4539.921181023026	1
0	14165	4543.144725340211	0
0	14178	4547.268502365507	1
0	14181	4548.617608559204	0
0	14194	4551.810326994518	1
0	14198	4560.328297163268	2
0	14199	4561.191309676468	1
0	14204	4561.311604891827	0
0	14225	4564.442722799519	1
0	14228	4568.384414024618	0
0	14241	4570.95611399502	1
0	14243	4574.43012288072	0
0	14257	4579.108195531456	1
0	14263	4585.90319478943	2
0	14267	4588.456017947994	3
0	14270	4593.545603214476	2
0	14276	4593.936973970191	3
0	14280	4599.419365946677	2
0	14288	4600.935652134045	3
0	14291	4601.448545379861	4
0	14301	4604.468106576706	5
0	14304	4606.386319870042	4
0	14309	4607.094950639036	3
0	14319	4609.377282916338	2
0	14324	4610.30357791698	1
0	14332	4611.05985654527	2
0	14333	4612.40488571996	1
0	14338	4612.425202654219	0
0	14357	4616.093582886998	1
0	14363	4618.308396295477	2
0	14368	4620.63870285971	1
0	14375	4622.853376072631	0
0	14381	4624.30565262974	1
0	14384	4624.656065225181	0
0	14402	4632.639447735392	1
0	14410	4636.291418317131	0
0	14416	4636.378300702886	1
0	14417	4637.049243108608	0
0	14431	4641.162353418907	1
0	14436	4644.022239454391	0
0	14445	4646.036570088824	1
0	14449	4646.728938593646	2
0	14450	4646.880000403905	1
0	14457	4649.304949921047	0
0	14468	4653.598016834955	1
0	14471	4656.078706675016	2
0	14478	4667.095960823454	1
0	14484	4667.589837744076	0
0	14510	4670.922517022895	1
0	14512	4672.250307243257	0
0	14519	4674.590146646699	1
0	14521	4674.817102187648	2
0	14522	4675.866602447643	1
0	14530	4676.929061847854	0
0	14566	4686.621509192332	1
0	14568	4686.648312472678	2
0	14572	4689.01729972343	3
0	14573	4693.213348807508	2
0	14579	4693.840769594645	1
0	14584	4694.570531987661	0
0	14593	4696.669361970054	1
0	14595	4697.579268876418	2
0	14601	4702.682202039391	3
0	14604	4704.203981962454	2
0	14612	4706.139897383808	3
0	14613	4706.505612909138	2
0	14621	4710.206440234734	1
0	14631	4713.660677849676	0
0	14643	4716.110237750621	1
0	14644	4716.303818340944	0
0	14650	4717.313568437829	1
0	14657	4720.019271730017	0
0	14668	4721.581122777272	1
0	14669	4721.760366620357	0
0	14697	4734.120568324103	1
0	14698	4734.665914328283	0
0	14725	4739.990777244182	1
0	14727	4740.112617247455	2
0	14732	4741.471756210291	1
0	14737	4742.135220338741	0
0	14747	4744.533207413791	1
0	14751	4747.402226700165	2
0	14752	4747.94250939157	1
0	14757	4748.44427013302	0
0	14771	4754.761458113531	1
0	14775	4754.934291799355	2
0	14777	4755.868926941649	3
0	14778	4756.372277165374	2
0	14784	4756.610903822555	3
0	14786	4756.98331451066	4
0	14790	4757.981476839927	3
0	14797	4759.152421395464	4
0	14800	4759.894045925684	3
0	14808	4763.608724926533	2
0	14814	4763.708128330778	1
0	14822	4766.495772270496	0
0	14840	4770.867112468519	1
0	14841	4771.359120022936	0
0	14850	4773.80050851667	1
0	14851	4774.062604987365	0
0	14876	4780.432940047386	1
0	14877	4780.671214685637	0
0	14889	4784.481447200477	1
0	14894	4787.093912072433	0
0	14901	4789.466953095405	1
0	14903	4791.820226549688	2
0	14904	4794.352032394636	1
0	14909	4794.716925271418	0
0	14915	4795.008339721823	1
0	14916	4795.351336624981	0
0	14941	4802.198903214894	1
0	14943	4804.256973366306	0
0	14954	4809.449569380896	1
0	14955	4809.781538801236	0
0	14986	4825.218009571667	1
0	14988	4825.542365285389	2
0	14990	4825.559411352406	3
0	14992	4826.516266250404	4
0	15000	4832.308161904663	5
0	15001	4833.351520731741	4
0	15007	4833.877815743955	3
0	15013	4835.398959865391	2
0	15018	4836.023338759268	1
0	15024	4836.635519456508	2
0	15029	4839.168231306566	1
0	15035	4839.715590076781	2
0	15037	4839.731807250947	3
0	15039	4840.153161678533	4
0	15042	4840.638307350252	5
0	15045	4842.063610059121	6
0	15047	4844.39601025987	7
0	15050	4844.720164758944	6
0	15062	4848.865446546145	5
0	15068	4850.023216647696	6
0	15070	4851.425883767776	5
0	15076	4851.657662268601	4
0	15081	4851.754297603783	3
0	15088	4853.094147920507	2
0	15097	4854.407230159122	3
0	15098	4854.407817604602	2
0	15106	4856.045192969914	1
0	15111	4860.007272427345	0
0	15117	4860.067548544423	1
0	15119	4860.482244368259	2
0	15122	4861.001827391159	3
0	15124	4861.907286762176	2
0	15135	4865.01259192491	3
0	15138	4866.302642916106	2
0	15146	4867.990961123704	3
0	15150	4868.769756441172	2
0	15155	4868.915617837619	1
0	15161	4869.170815712351	2
0	15163	4869.198685086369	3
0	15165	4870.772613859019	2
0	15172	4872.573194509396	1
0	15178	4873.018488043232	2
0	15181	4873.750432711821	1
0	15186	4873.872763374988	0
0	15211	4880.722359454191	1
0	15212	4881.261012477157	0
0	15218	4882.120617381448	1
0	15226	4884.911864606641	0
0	15233	4884.955501958813	1
0	15234	4889.395099131019	0
0	15266	4906.870178396905	1
0	15267	4907.19563819623	0
0	15288	4919.377808273055	1
0	15290	4920.304697691583	2
0	15294	4926.747838828518	3
0	15296	4929.249503847113	4
0	15297	4931.325879909657	3
0	15302	4931.730983062086	2
0	15307	4932.227282549359	1
0	15313	4933.345878951372	0
0	15324	4934.523717794825	1
0	15328	4936.487421269374	2
0	15331	4937.414520529341	3
0	15332	4938.928683299388	2
0	15337	4939.179627115974	1
0	15342	4939.333531295001	0
0	15357	4940.874159753095	1
0	15362	4942.23679579174	0
0	15387	4956.129339726686	1
0	15393	4958.250472233455	2
0	15396	4959.969327733505	1
0	15402	4961.521825488059	0
0	15444	4970.559095110619	1
0	15448	4970.73323132707	2
0	15451	4972.345524430205	1
0	15458	4973.304577039553	0
0	15464	4973.86708389769	1
0	15467	4975.247587948759	0
0	15485	4977.447667198191	1
0	15487	4978.121883267226	2
0	15488	4979.532702988743	1
0	15494	4980.99847367102	2
0	15495	4981.181040081587	1
0	15500	4981.882250750316	0
0	15508	4983.106658032869	1
0	15510	4985.601564066486	0
0	15517	4987.598987067171	1
0	15521	4991.942072474623	2
0	15522	4993.830773509535	1
0	15532	5000.105667554772	2
0	15536	5001.346611684587	3
0	15540	5007.907622611167	4
0	15541	5008.573648324993	3
0	15549	5010.92971376923	4
0	15550	5010.994941694542	3
0	15555	5011.082419943523	2
0	15562	5012.2096127775	1
0	15568	5013.13503190445	0
0	15574	5013.455398252466	1
0	15576	5014.580463158263	0
0	15599	5020.465752287297	1
0	15601	5023.08225055436	2
0	15604	5024.456997448225	1
0	15610	5025.465345296239	0
0	15630	5028.057957027502	1
0	15631	5028.563307122189	0
0	15644	5030.738563805677	1
0	15645	5031.064984303203	0
0	15656	5032.651365181971	1
0	15660	5036.143013619937	0
0	15667	5037.929932275385	1
0	15668	5038.123604124354	0
0	15677	5038.772418131477	1
0	15679	5039.55633596399	2
0	15680	5040.905170165905	1
0	15688	5043.203635710045	0
0	15696	5047.626013823408	1
0	15697	5047.686694205318	0
0	15710	5049.956046189051	1
0	15711	5051.655173191061	0
0	15722	5052.355596396921	1
0	15727	5055.976893834992	2
0	15731	5057.305280083446	3
0	15734	5058.258572173351	2
0	15740	5060.125896983314	1
0	15746	5061.206935608533	2
0	15748	5061.481731374016	3
0	15750	5064.101318386555	2
0	15756	5064.887749014698	1
0	15763	5065.428474376754	0
0	15775	5066.619587343144	1
0	15776	5067.286621636968	0
0	15782	5068.701127140548	1
0	15783	5068.872859235299	0
0	15800	5073.962031895515	1
0	15802	5076.253413032686	2
0	15806	5079.031721757509	1
0	15813	5079.455837638841	2
0	15814	5080.552550034228	1
0	15825	5083.511589567405	2
0	15830	5089.947022930379	1
0	15837	5092.568943764282	2
0	15838	5092.681152312563	1
0	15843	5093.278106586056	0
0	15864	5098.654676733448	1
0	15872	5110.11263511981	2
0	15875	5112.517795807253	1
0	15881	5112.779069794853	0
0	15903	5119.991965738349	1
0	15905	5121.566285710724	2
0	15906	5121.571458889357	1
0	15912	5121.801860299559	0
0	15940	5133.68755577576	1
0	15941	5134.265426706987	0
0	15967	5145.452202479434	1
0	15972	5151.494473744399	0
0	15989	5156.526595796256	1
0	15993	5159.932374338033	2
0	15994	5161.768088052742	1
0	16000	5163.397558064772	0
0	16015	5168.520569804956	1
0	16016	5169.69188328584	0
0	16037	5175.127402216284	1
0	16041	5175.780467079485	2
0	16045	5177.343643247172	3
0	16048	5178.032031427182	2
0	16058	5182.069578031483	1
0	16064	5182.167081339738	2
0	16066	5185.624805497914	1
0	16073	5187.367524451934	2
0	16079	5190.962843911406	3
0	16080	5193.25512446702	2
0	16085	5193.491640786721	1
0	16091	5193.603300181666	2
0	16093	5194.684523601497	1
0	16101	5195.343473980838	2
0	16105	5196.331564548643	3
0	16109	5199.915065563645	2
0	16116	5203.139204120334	1
0	16121	5203.179428028417	0
0	16136	5206.499558770176	1
0	16138	5208.16073565145	0
0	16160	5220.080415621769	1
0	16162	5221.801960879845	2
0	16165	5224.909536344032	1
0	16172	5225.731459004514	0
0	16184	5228.884753900409	1
0	16185	5229.481343281696	0
0	16192	5229.880639325051	1
0	16193	5230.372488489346	0
0	16217	5234.294212222682	1
0	16219	5234.677131534079	2
0	16221	5235.508251081558	3
0	16225	5237.737794019448	2
0	16238	5239.42072059412	3
0	16241	5240.295904460241	4
0	16243	5240.804143147627	5
0	16245	5242.198062220211	4
0	16254	5243.653828718674	5
0	16262	5256.574231592328	4
0	16272	5257.45645968859	3
0	16279	5260.042136621238	2
0	16289	5262.44632833597	3
0	16290	5263.098492206943	2
0	16298	5267.3019818939	1
0	16304	5267.673320663511	2
0	16308	5268.625817215423	1
0	16317	5270.513153594042	2
0	16319	5270.897214754233	3
0	16326	5277.078534090152	2
0	16336	5280.42947953619	1
0	16342	5280.730537873669	2
0	16343	5281.411443794167	1
0	16351	5282.989008470752	2
0	16354	5286.156381033164	1
0	16360	5286.423474951332	2
0	16362	5287.213726869449	1
0	16368	5289.593551591641	2
0	16369	5289.928218053746	1
0	16387	5296.276998882865	2
0	16389	5298.012333600631	3
0	16391	5299.414812819329	4
0	16392	5300.97967424216	3
0	16397	5302.003559023415	2
0	16402	5302.158372008481	1
0	16407	5302.388300436951	0
0	16435	5308.220511234347	1
0	16437	5309.290045959287	2
0	16438	5309.458232608871	1
0	16445	5312.159177517133	0
0	16457	5313.335697313162	1
0	16459	5313.790617443436	0
0	16474	5316.846835077474	1
0	16479	5318.319075716145	0
0	16487	5321.455246658664	1
0	16488	5322.23587269307	0
0	16494	5322.249405744486	1
0	16497	5324.341259155848	0
0	16504	5324.890731672466	1
0	16507	5325.650193100235	0
0	16536	5338.150670216366	1
0	16538	5339.78512703888	2
0	16539	5340.615099425659	1
0	16545	5341.737721936146	0
0	16558	5345.611047073695	1
0	16564	5348.258328977105	2
0	16566	5349.021598095846	3
0	16568	5351.142630630906	4
0	16569	5351.504281423303	3
0	16574	5352.065970438573	2
0	16581	5354.235452371215	3
0	16582	5354.339318180822	2
0	16591	5355.720838152638	1
0	16600	5356.585964559713	2
0	16601	5358.533794338266	1
0	16606	5358.646201604759	0
0	16612	5358.809670022068	1
0	16616	5359.764374977943	0
0	16623	5360.58816490297	1
0	16626	5362.087366172112	0
0	16641	5366.693565154999	1
0	16649	5370.019232999338	2
0	16650	5370.622212864261	1
0	16657	5373.338724033873	0
0	16666	5375.203188052167	1
0	16668	5375.933517464234	2
0	16669	5376.009078557574	1
0	16676	5377.916870016064	0
0	16691	5380.246693500896	1
0	16693	5384.044335369821	2
0	16701	5389.821346916788	3
0	16702	5389.996614769122	2
0	16707	5390.077407919176	1
0	16714	5392.44582723388	2
0	16717	5395.746715572869	3
0	16719	5396.902396911206	4
0	16721	5399.573973715637	5
0	16722	5399.731553058896	4
0	16727	5399.755397961699	3
0	16733	5400.448754479233	2
0	16739	5401.881654703171	3
0	16741	5403.109500823358	4
0	16742	5403.28017881882	3
0	16748	5404.895528193996	4
0	16750	5405.859872036326	3
0	16755	5406.552235209533	2
0	16765	5408.622995071338	1
0	16770	5408.762119382887	0
0	16783	5412.643330008101	1
0	16784	5413.391676668675	0
0	16817	5423.892560464449	1
0	16821	5425.000014556996	2
0	16823	5428.017623865638	3
0	16824	5428.340028234646	2
0	16830	5428.750383939818	3
0	16832	5428.770144784687	4
0	16833	5429.074018822359	3
0	16838	5429.796671561279	2
0	16843	5429.891299383696	1
0	16849	5430.236750914112	2
0	16857	5433.534203139472	3
0	16868	5441.161993333513	4
0	16872	5442.358169505277	3
0	16879	5443.173757467981	2
0	16884	5443.445329871418	1
0	16890	5443.7362012267	2
0	16894	5446.59821312805	1
0	16902	5447.49830715617	2
0	16903	5448.215368488773	1
0	16910	5453.537217823926	0
0	16922	5455.248712325871	1
0	16923	5455.924828544672	0
0	16929	5457.611845830234	1
0	16934	5459.06680015937	2
0	16935	5459.504621054126	1
0	16941	5460.185672308099	0
0	16947	5460.536640010081	1
0	16952	5463.485584988082	0
0	16974	5468.615083556459	1
0	16976	5469.531561086975	2
0	16978	5469.955043148602	3
0	16984	5473.229839976169	4
0	16988	5476.646041258812	5
0	16989	5477.691578631774	4
0	16995	5479.758730128286	5
0	16996	5479.99983505182	4
0	17002	5480.775593442526	5
0	17004	5482.239660862846	4
0	17009	5482.88590964035	3
0	17014	5482.983398548865	2
0	17023	5484.138226412099	1
0	17029	5484.167140678557	2
0	17031	5484.901821011343	1
0	17036	5485.00978763546	0
0	17042	5486.058653364818	1
0	17046	5487.538800233463	0
0	17065	5494.392383570207	1
0	17069	5497.22265192108	2
0	17071	5497.700633316198	3
0	17073	5497.831801130094	4
0	17074	5498.836871495678	3
0	17080	5499.233280194498	2
0	17085	5499.469008914436	1
0	17096	5500.753499781075	0
0	17105	5501.163466334333	1
0	17112	5503.535872035108	0
0	17130	5506.826452044054	1
0	17135	5510.516503033375	2
0	17136	5511.86217178523	1
0	17143	5514.849602486332	2
0	17145	5515.447180758233	3
0	17147	5515.689168700213	4
0	17148	5516.078075149038	3
0	17155	5516.611981579714	4
0	17156	5517.088896893888	3
0	17162	5517.692862579323	2
0	17171	5520.498048979799	3
0	17174	5522.358485708151	2
0	17180	5523.401011383729	1
0	17187	5524.867351905631	0
0	17197	5525.834957806323	1
0	17201	5530.251260426451	0
0	17234	5539.530975653592	1
0	17238	5541.381870194801	2
0	17239	5541.515143746545	1
0	17245	5543.747353766768	0
0	17256	5546.52987936147	1
0	17258	5547.442370262566	0
0	17269	5550.922076967022	1
0	17273	5553.988737356308	0
0	17288	5558.493148522555	1
0	17290	5560.412115227639	2
0	17291	5560.811236883501	1
0	17296	5561.229293835113	0
0	17308	5566.50821116176	1
0	17313	5568.875016949163	0
0	17320	5570.207647608673	1
0	17323	5571.778826390774	2
0	17324	5573.05323651961	1
0	17330	5577.784113637854	0
0	17337	5578.717945661578	1
0	17339	5579.163995992978	2
0	17340	5582.681343951553	1
0	17346	5584.11658927823	0
0	17366	5594.797124349062	1
0	17368	5595.739713429934	2
0	17370	5596.576518338597	3
0	17373	5600.599440541151	2
0	17379	5603.010375147114	1
0	17389	5608.432490682914	0
0	17395	5608.746389056901	1
0	17404	5614.444898335112	0
0	17418	5616.696448686285	1
0	17419	5617.193919738063	0
0	17436	5618.304493222009	1
0	17437	5619.090939401448	0
0	17446	5619.753848630055	1
0	17450	5623.631103639908	2
0	17454	5627.44505345811	1
0	17459	5627.84621568928	0
0	17466	5628.677108075506	1
0	17469	5629.767185692754	0
0	17479	5633.322820507383	1
0	17482	5636.643819983579	0
0	17490	5637.459793073446	1
0	17495	5639.393924714018	2
0	17496	5639.606526261524	1
0	17504	5642.144363754267	2
0	17505	5647.867349285719	1
0	17511	5649.6900043351	2
0	17513	5649.919311521136	1
0	17519	5650.37480242327	0
0	17567	5662.776740522156	1
0	17569	5663.975431423235	2
0	17571	5664.256909342072	3
0	17575	5665.773832615567	4
0	17579	5666.44619254085	5
0	17582	5667.502114883106	4
0	17588	5668.900274179799	3
0	17595	5669.178155581887	4
0	17600	5671.283474546949	3
0	17608	5672.178274548127	4
0	17610	5672.409465642136	5
0	17611	5673.930845807805	4
0	17617	5675.569005566839	3
0	17623	5676.226353649681	4
0	17625	5679.583177588266	3
0	17630	5680.008223064195	2
0	17638	5683.90656061809	3
0	17640	5684.050570183747	2
0	17645	5684.053746075058	1
0	17652	5684.856278027909	0
0	17658	5686.946285172574	1
0	17662	5688.140375781187	0
0	17683	5693.978590938138	1
0	17684	5694.249701865156	0
0	17695	5695.247231993101	1
0	17696	5695.321852980599	0
0	17714	5698.230545879016	1
0	17715	5698.64485682682	0
0	17721	5698.669505863592	1
0	17722	5698.965223655805	0
0	17740	5703.445246147776	1
0	17746	5704.909703830712	2
0	17750	5706.846768048315	3
0	17754	5708.162654359409	2
0	17760	5711.062585623797	1
0	17766	5712.737673039388	0
0	17790	5718.899380540721	1
0	17791	5718.996097733779	0
[...]
4	82510	26417.76005849396	5753.0131548107
4	82524	26421.536332128893	5741.095010721
4	82536	26427.096999940093	5741.2038342823
4	82557	26435.718149540727	5747.9682727015
4	82582	26441.376380967133	5748.7405317884
4	82602	26450.386219003858	5754.2571961727
4	82614	26458.591673021788	5753.3975853464
4	82633	26465.289345776783	5738.113887976
4	82638	26469.595365430543	5723.493784862
4	82647	26473.993861071788	5726.8508193749
4	82667	26477.312398582629	5721.3399470021
4	82686	26480.057056720746	5707.4348547501
4	82703	26488.135490448269	5712.9206350084
4	82719	26499.356246389326	5723.9863052766
4	82737	26502.227905598358	5719.8222587909
4	82752	26509.41113770764	5718.7038956863
4	82869	26551.706834088442	5757.8098251637
4	82901	26558.134812926201	5757.9856121656
4	82908	26563.324249343909	5748.5734312741
4	82915	26566.452390686999	5745.7181902898
4	82940	26569.596516324287	5743.6428778746
4	82958	26573.464530833291	5746.2023023133
4	82997	26588.480477402551	5752.3972431519
4	83028	26597.724893696168	5746.8353758043
4	83038	26599.098804475433	5726.1301582846
4	83050	26604.672407400851	5731.7021531709
4	83061	26606.897255099075	5706.5806136076
4	83074	26610.003152415847	5701.2679018151
4	83098	26614.440113639769	5705.2881729839
4	83208	26640.939968586571	5731.473243654
4	83213	26642.296578680544	5731.8332660399
4	83226	26645.49190150897	5732.9329355269
4	83240	26648.913500302366	5719.5088747824
4	83245	26650.081445013025	5720.0443198293
4	83254	26654.685030594792	5722.0961573453
4	83267	26658.287453064443	5714.3111592593
4	83293	26662.422782167754	5715.7598638901
4	83300	26665.787358258041	5709.0852145735
4	83324	26670.063181090278	5712.1517716391
4	83331	26670.498325134593	5712.1527237661
4	83343	26674.206606344522	5712.4797232019
4	83352	26679.059645326926	5695.9418293786
4	83386	26693.392858699718	5709.5293486306
4	83404	26697.063157438874	5712.4805268779
4	83413	26698.990022180427	5712.484486203
4	83430	26703.172073171334	5710.7720162784
4	83438	26706.206212442645	5708.7631025382
4	83454	26708.35598266903	5708.0836748824
4	83459	26708.694140091057	5685.6697784575
4	83466	26710.024369982571	5685.2393933877
4	83471	26713.161286757398	5683.1843764581
4	83484	26720.127250213722	5681.0145847769
4	83530	26735.432279973821	5693.0058197866
4	83539	26741.518555994354	5691.9488938751
4	83554	26747.408476967004	5695.0255283429
4	83595	26762.738816023341	5704.7123871369
4	83605	26765.016694715024	5706.657316764
4	83611	26766.122397360651	5690.9557892665
4	83626	26769.124066072452	5693.4301510332
4	83728	26800.592782146409	5709.0531848873
4	83733	26800.872961572158	5708.5061915174
4	83738	26801.571686433288	5705.3138015864
4	83745	26806.195071802359	5703.7970226461
4	83752	26815.174774178706	5703.4253909429
4	83777	26825.658357228598	5710.7021547296
4	83818	26832.728389226409	5715.674729604
4	83827	26836.030719498972	5705.6805643787
4	83832	26838.607255742345	5704.6634508626
4	83842	26842.675762461619	5707.8841203099
4	83847	26844.593918836707	5702.4348630594
4	83862	26850.918383948954	5706.6482694591
4	83979	26886.857405657928	5741.9192120448
4	83985	26887.607266276106	5741.8564530337
4	83990	26887.642074447466	5731.8534840968
4	84004	26891.571101649408	5734.8131872244
4	84031	26896.698601272089	5738.5608734496
4	84038	26897.656823549251	5733.7824986219
4	84043	26898.303264487858	5734.0132540786
4	84057	26906.899872831866	5734.9657817669
4	84080	26909.482380608777	5737.0756858442
4	84087	26911.474431510832	5726.1583176803
4	84094	26913.700322996873	5725.6956031147
4	84108	26919.646371247952	5716.8422648175
4	84146	26931.774832666089	5723.5702412893
4	84171	26940.612493801122	5730.6098619047
4	84182	26942.919569654171	5730.6450934515
4	84207	26948.267239415572	5735.064152483
4	84226	26958.920794211734	5740.9566739977
4	84303	26983.369358144046	5763.8609413756
4	84310	26985.207542007933	5751.1394893274
4	84330	26987.02431380661	5744.1693792585
4	84335	26987.029472472269	5739.977340858
4	84340	26987.057832478568	5729.0896909707
4	84345	26987.386500673581	5726.499559282
4	84353	26988.797599843946	5726.1188741442
4	84370	26995.228866399898	5720.8846000694
4	84465	27018.792075692552	5743.8116417547
4	84472	27021.777985689168	5743.627906611
4	84490	27031.730489811557	5751.4238454385
4	84525	27044.393735083851	5759.3917102878
4	84533	27048.941502683734	5762.948769899
4	84559	27063.259371889255	5773.9494028605
4	84566	27063.61775115105	5773.984810722
4	84603	27080.64072407802	5787.7069940048
4	84610	27083.829150387744	5788.8370001827
4	84628	27088.267622565729	5787.811997103
4	84645	27098.417702367764	5791.5485741334
4	84790	27133.94437671732	5812.8963048106
4	84806	27139.806095320383	5813.3716812741
4	84823	27142.773838368397	5810.5013426431
4	84832	27145.676004757976	5801.1514360031
4	84844	27147.958767881868	5801.37825739
4	84855	27149.46208654428	5789.5439174356
4	84861	27154.832509473404	5790.0857307884
4	84872	27160.949809010581	5795.2115251321
4	84891	27166.94719952441	5798.1073056334
4	84919	27172.584798137925	5797.6863217798
4	84931	27175.863513357568	5800.8672364776
4	84945	27182.284437152415	5801.2943394258
4	84954	27188.028944383723	5805.8681813553
4	84986	27202.125888598028	5807.8743799504
4	85139	27259.58827445065	5859.7762463448
4	85160	27269.880236401523	5861.787763884
4	85177	27273.28548740338	5859.1555658188
4	85226	27283.879069037413	5856.0896966234
4	85239	27284.934625080495	5855.2455365943
4	85279	27298.416917384161	5864.9074188304
4	85289	27304.179403906193	5866.6138446554
4	85334	27313.623779574365	5874.8750959296
4	85350	27317.724366665964	5864.8610683076
4	85366	27329.176761654128	5875.4614635438
4	85396	27338.181324099464	5883.9644888066
4	85483	27361.053117735329	5904.5655070608
4	85497	27365.63777886344	5907.0934459671
4	85525	27375.020400222397	5915.0930586256
4	85579	27395.362922014556	5935.130217942
4	85732	27429.935362754721	5968.6702154946
4	85749	27432.973638877034	5964.1839890985
4	85850	27464.193933631739	5994.9643659968
4	85861	27468.868809166275	5997.3892377887
4	85866	27469.472492463245	5987.6773455306
4	85871	27469.86842919473	5981.0019776011
4	85876	27472.586264898897	5979.9271604968
4	85881	27473.314154623596	5973.9601405649
4	85887	27474.537442355235	5968.2917376032
4	85900	27483.871905321157	5975.4931457453
4	85918	27490.215450868811	5978.6104625378
4	85931	27495.658593249776	5981.6731597788
4	85944	27504.440036009285	5989.1637053584
4	86015	27526.451737681074	6010.0323723465
4	86032	27533.326522875084	6003.3030807962
4	86505	27704.611474955545	6167.6304031315
4	86510	27706.351606670584	6166.9328411546
4	86521	27708.581099164332	6168.5188078483
4	86535	27713.168102560691	6172.385051757
4	86540	27718.56544151286	6172.8210918199
4	86557	27724.124937668455	6177.9495197011
4	86624	27741.653384194596	6190.0491928155
4	86643	27742.153908620617	6188.208331168
4	86648	27748.555926305856	6193.9442395342
4	86659	27752.304166625827	6195.9180658781
4	86709	27768.591690511756	6209.7983010483
4	86723	27771.766611168733	6212.3067973004
4	86731	27772.683207186423	6180.410764962
4	86750	27780.710128035297	6185.9061418827
4	86770	27793.316385802671	6197.4274082453
4	86829	27802.39805428768	6198.934971096
4	86841	27807.412894704659	6203.4590420327
4	86984	27854.866437811725	6247.8940670407
4	86991	27855.680056337551	6243.104367847
4	86996	27855.825164588281	6242.8545087282
4	87003	27856.37537127284	6243.283318
4	87017	27860.012376838771	6243.3144365444
4	87029	27865.818767629007	6236.53384
4	87071	27877.062532941954	6245.0783625341
4	87084	27880.215484389489	6246.913117585
4	87104	27887.712860888528	6248.4318981877
4	87115	27889.882333742878	6237.9617358846
4	87120	27890.48423252116	6217.3742469215
4	87136	27898.652508028559	6220.2785898132
4	87236	27920.223339447463	6236.4208573032
4	87241	27921.274594925608	6232.0560465299
4	87246	27922.339062980078	6231.2441298351
4	87251	27922.492365969708	6227.0218418078
4	87258	27924.098565351393	6228.1294289828
4	87272	27932.722302626726	6233.815732841
4	87279	27935.631532578662	6232.8727955693
4	87291	27939.034223356643	6232.7754910259
4	87307	27945.299627315652	6237.7604176444
4	87336	27948.795092007029	6239.4945320863
4	87341	27949.948640410688	6234.4249340692
4	87348	27950.53931823057	6226.4867741454
4	87367	27953.726685100165	6218.726509735
4	87377	27958.795483065404	6221.586296781
4	87383	27959.370659975287	6217.3400058481
4	87392	27964.480878282684	6222.0259854327
4	87415	27972.566221188398	6229.0961569499
4	87541	28009.953019643416	6259.7137531045
4	87556	28018.556599188415	6260.0302904858
4	87568	28021.455499218304	6261.2360390798
4	87601	28034.937420617626	6267.7324414126
4	87609	28040.229251554666	6256.1514982702
4	87621	28047.477810912986	6256.1845416323
4	87626	28047.798202658195	6252.1185087161
4	87631	28049.880196275263	6244.5997608147
4	87638	28050.565432326361	6240.4745547256
4	87647	28054.591426399489	6235.3352304095
4	87664	28062.03300442648	6240.5805206443
4	87696	28072.223617458502	6249.768080205
4	87732	28078.068123976812	6247.5548071708
4	87737	28080.277433222194	6242.8799815808
4	87747	28084.822892054914	6246.4188661948
4	87766	28093.053006098611	6254.6379359107
4	87771	28093.705841303687	6253.1087485861
4	87782	28097.184590479908	6241.2124468478
4	87835	28107.752695898271	6250.6177508359
4	87843	28109.688486687274	6247.0438665846
4	87850	28111.860894254578	6247.8232506646
4	87865	28121.462939453195	6256.2596066202
4	87873	28126.219981545352	6255.2650718628
4	87897	28135.028139810045	6263.0696203341
4	87922	28148.431389325378	6272.8272500064
4	88160	28229.185469019119	6349.8941801293
4	88198	28242.233313044839	6350.605700458
4	88205	28244.229165172744	6352.031806401
4	88220	28248.986880693576	6340.6892407681
4	88248	28257.146662281954	6326.937144495
4	88253	28257.208990355065	6324.3313744667
4	88260	28261.220005285205	6323.8313030189
4	88273	28267.422290399169	6328.5262685396
4	88304	28279.21336208277	6338.3325337491
4	88327	28285.896882888575	6336.0702886395
4	88355	28294.788999551848	6342.8516375507
4	88360	28296.276879745076	6341.811935027
4	88375	28300.83601389568	6338.3993098215
4	88450	28317.171874886663	6353.1860534943
4	88468	28319.98948057866	6354.5392111131
4	88474	28321.308069405613	6355.6562743354
4	88484	28325.277468801101	6356.9516414718
4	88494	28326.876236860752	6355.9291765339
4	88505	28327.343077071165	6353.9886356943
4	88510	28327.544308549527	6350.1254712579
4	88526	28334.306711596656	6355.6061069484
4	88585	28358.99787376539	6380.0275412378
4	88596	28361.167152025731	6379.6947970314
4	88609	28368.197025774281	6384.5138779911
4	88630	28376.455049706306	6376.5267705211
4	88663	28380.616566638341	6378.8407069561
4	88668	28382.010970690879	6365.68956351
4	88681	28387.581733626169	6369.3392877932
4	88719	28397.685129693756	6378.7117987094
4	88728	28398.458985623075	6377.2524682385
4	88737	28403.189573249039	6379.6341854901
4	88765	28419.253742788748	6390.6240388822
4	88777	28422.152242931041	6393.2572345609
4	88791	28424.905737655003	6386.9692182864
4	88804	28427.074582035872	6388.4344241895
4	88977	28483.714749830541	6443.3370879264
4	88982	28484.142970868763	6424.5202238098
4	88989	28486.279237917096	6418.8952774462
4	89014	28499.173334439875	6413.493106449
4	89122	28525.856477223723	6427.1594682338
4	89127	28527.648545792464	6424.5775616044
4	89132	28528.08809637071	6420.9641499762
4	89141	28530.768290673121	6422.9647007181
4	89210	28546.296996073593	6431.7721895282
4	89218	28548.148861523248	6428.6405221847
4	89255	28559.614781456801	6439.1240499764
4	89269	28561.384781043154	6433.7313104291
4	89280	28563.713156485457	6433.4451619522
4	89289	28567.998614111321	6434.7114974174
4	89294	28568.885405945184	6434.0527848176
4	89299	28568.887804609011	6425.0072278812
4	89307	28570.346930247813	6412.1401774579
4	89329	28576.847434026697	6404.1098333844
4	89361	28584.252833670947	6410.9875228442
4	89375	28586.666490369449	6411.0281259835
4	89380	28588.650357259673	6405.6648076561
4	89395	28595.053885389897	6407.2261102712
4	89436	28605.679360255317	6391.0553156028
4	89484	28619.349658832138	6400.8594316979
4	89490	28622.042488744685	6399.1267686022
4	89497	28624.516775613262	6395.0345801719
4	89510	28630.899826529789	6395.1365833126
4	89517	28636.13298864716	6397.2840974046
4	89526	28639.71212168755	6392.5715217793
4	89544	28643.736294516045	6387.097053397
4	89552	28649.583762996429	6392.5232332683
4	89566	28655.008462025786	6389.4110362177
4	89591	28659.084927272172	6387.60224449
4	89628	28672.591242517659	6400.9852288436
4	89649	28677.64298822437	6394.0852985145
4	89690	28688.168578475725	6403.0595290658
4	89702	28690.437848121083	6403.4615643327
4	89707	28692.004796854379	6402.4310074871
4	89712	28692.510832658399	6382.1525586663
4	89719	28693.776482556371	6381.8926697584
4	89748	28700.480422000908	6382.6483289643
4	89755	28701.966747313337	6379.9221944433
4	89760	28703.629698350575	6379.4795157921
4	89767	28705.292397691779	6370.2288321569
4	89779	28710.346201210965	6356.0928111079
4	89788	28715.809791639684	6353.5529630885
4	89810	28723.17256689727	6357.86315532
4	89815	28724.481228233913	6338.7004967022
4	89820	28727.06337159094	6328.2344225723
4	89830	28729.899215009884	6330.4759338442
4	89914	28757.044056833241	6352.0363386584
4	89961	28775.670360151717	6359.6963400538
4	89972	28779.178046797535	6361.4318706466
4	89977	28779.651758212008	6356.377535279
4	89984	28783.849468217301	6334.7011549549
4	89989	28784.407141603127	6334.3122815825
4	90000	28789.362432229403	6335.3480750604
4	90005	28793.96788679444	6313.9739676843
4	90015	28800.459287062998	6317.8775831222
4	90020	28801.887165784108	6312.6171606857
4	90025	28808.300987860128	6317.3306316594
4	90041	28813.027310762098	6313.6546613792
4	90062	28819.876242991146	6320.4801764363
4	90067	28821.253687386259	6320.4225190904
4	90074	28822.910387336086	6320.6646966098
4	90079	28823.886956605646	6320.790588078
4	90086	28827.958950021283	6323.8240544583
4	90109	28837.12133311625	6329.4956795595
4	90166	28856.958079700075	6345.6465413746
4	90178	28863.779533426766	6349.4780162576
4	90258	28888.101323604582	6361.1347134842
4	90265	28890.604073576475	6362.5797893329
4	90270	28890.608073781997	6348.0093944822
4	90283	28897.403808588734	6345.9545627308
4	90306	28902.138658108171	6345.753215996
4	90313	28904.604298922667	6328.8175659744
4	90320	28905.127691367419	6323.3324531888
4	90355	28918.082881234784	6326.0620259228
4	90464	28955.16083733867	6361.7204392067
4	90481	28957.628126982152	6362.7085985392
4	90562	28975.005714044143	6364.4801580332
4	90583	28980.813988417593	6366.7080383042
4	90594	28986.985316324381	6372.5331515013
4	90624	29001.0660833038	6385.5631684629
4	90652	29009.226189935898	6392.7539016166
4	90663	29012.901967989657	6385.3838230798
4	90673	29014.998542590764	6383.0157807493
4	90681	29016.793934169788	6384.1055435831
4	90696	29021.711996438687	6382.7124812721
4	90717	29034.108316895532	6383.2112202128
4	90804	29052.585092596346	6397.8378175319
4	90817	29058.805323604659	6402.5437029933
4	90837	29066.550923300671	6388.367687703
4	90858	29069.768865087774	6390.5997218647
4	90880	29081.90754383177	6399.3093156266
4	91094	29141.663476605952	6453.7172931762
4	91150	29157.08423738223	6460.8069045848
4	91159	29160.443644324594	6463.8375230353
4	91178	29165.698394747408	6468.8244616701
4	91183	29166.063085992528	6469.0767706023
4	91198	29174.787456019958	6470.4603944781
4	91286	29196.111351585166	6484.0616763587
4	91307	29201.251741853884	6488.5882003887
4	91336	29211.940835491606	6497.8555969961
4	91347	29217.13837408214	6500.9180480862
4	91389	29225.832800934399	6501.4206518786
4	91411	29233.639499962502	6505.8258852576
4	91440	29246.408305434611	6516.7771413366
4	91457	29249.426321888835	6519.4086853831
4	91468	29251.480418369569	6517.5981488335
4	91473	29253.091286691645	6511.0399176983
4	91480	29255.093064964912	6506.8093086598
4	91520	29267.140785850103	6505.5469075283
4	91527	29270.623550120653	6506.5837133646
4	91552	29275.934743236218	6509.0692671058
4	91589	29290.489088067594	6516.3537587452
4	91624	29305.577738653669	6520.580614896
4	91672	29324.009093891823	6534.0011129031
4	91682	29329.552539268256	6537.6275227981
4	91749	29351.99801085617	6546.7292502726
4	91802	29363.749653169601	6556.4342278811
4	91807	29364.052752094037	6530.1249694105
4	91823	29369.350635836582	6532.5253808573
4	91866	29379.743720688222	6540.6839583588
4	91871	29381.044682366431	6535.9506990753
4	91886	29383.71164007687	6536.1047253581
4	91930	29390.923773268994	6527.2227521884
4	91935	29390.973043600811	6519.5886777855
4	91940	29391.316411466768	6517.4941378767
4	91949	29398.452812041217	6521.2594119174
4	91961	29399.704935266631	6512.0972458704
4	91971	29410.05735278434	6521.9736597267
4	91988	29413.31188791771	6523.0689286347
4	92025	29424.418202861413	6534.1522411797
4	92031	29426.739903056036	6534.5969425082
4	92045	29431.64659894264	6532.4421687265
4	92073	29437.248270388134	6534.523522652
4	92082	29444.247361571347	6538.1228557957
4	92101	29446.712287386556	6540.3150859892
4	92168	29476.503764219083	6565.3544054355
4	92184	29481.39471180346	6570.2421573326
4	92273	29506.816277834968	6593.3232393901
4	92280	29509.941263475337	6587.0162526115
4	92293	29522.594395862083	6591.2966403562
4	92369	29545.746753064319	6614.1616361551
4	92376	29548.951001431175	6610.5522651378
4	92391	29555.192888340263	6609.654632691
4	92407	29558.301178065809	6611.9029576175
4	92415	29566.039596870539	6619.4743183562
4	92420	29568.599735636753	6609.64979752
4	92427	29570.21840628737	6604.3823624103
4	92440	29577.024880916622	6609.8513618008
4	92515	29608.142138581029	6634.2990173729
4	92522	29609.369992725649	6633.0433510429
4	92535	29612.732906799949	6632.986781708
4	92731	29686.48306151078	6705.9881803643
4	92740	29689.516788081522	6708.4326326368
4	92770	29697.091330314056	6709.3442704439
4	92777	29698.197641617503	6706.2134725568
4	92793	29701.935558551077	6705.0660605496
4	92814	29712.408235156987	6713.9800919544
4	92819	29712.951995468606	6709.7504156959
4	92824	29718.19837461274	6706.3123324476
4	92841	29722.205262937141	6709.5076366057
4	92939	29750.292601735338	6735.3756791949
4	92960	29753.872594301524	6733.5668665654
4	92967	29754.826425237176	6733.5184088578
4	92984	29758.19350776325	6733.5261133239
4	92991	29759.818199310557	6731.7913812335
4	93001	29760.946669428211	6726.8351226556
4	93006	29761.986151043817	6724.7736679499
4	93012	29763.47564193762	6723.6218981977
4	93023	29769.949658713836	6729.7599522295
4	93032	29776.238041795096	6735.0513825936
4	93037	29777.58707239775	6689.964399247
4	93044	29779.907454445895	6691.2038619533
4	93065	29787.50150849922	6697.4089082381
4	93207	29829.403547943561	6727.7901679429
4	93219	29832.023723981418	6718.0866479649
4	93236	29839.391461516202	6716.6292731069
4	93249	29841.674524035059	6713.8562043251
4	93254	29842.051046344653	6705.1562758995
4	93263	29842.789119084043	6693.3925710719
4	93273	29843.202168006045	6687.9684001129
4	93278	29843.417343141546	6686.8874828902
4	93292	29850.822387035594	6688.2985278952
4	93321	29857.952689530709	6680.8307908289
4	93334	29860.410010197529	6682.142761322
4	93339	29860.929452822982	6682.560245672
4	93347	29862.462951552487	6678.8575267317
4	93365	29870.38994735991	6685.0590075338
4	93393	29883.723917657683	6697.9064372315
4	93441	29898.545075005416	6701.6851778381
4	93452	29901.024128583281	6701.478930407
4	93460	29903.977130360235	6694.9101014615
4	93488	29914.898151765073	6704.9982219773
4	93508	29921.400692294621	6705.5126802173
4	93521	29929.940009729414	6711.2840798751
4	93545	29933.428916316117	6712.8559395969
4	93556	29933.960777742016	6711.6028991896
4	93565	29937.581160958838	6699.3734193821
4	93570	29937.680730048208	6698.4422959172
4	93584	29946.202425671441	6704.3355857451
4	93624	29953.634040395267	6710.0196273268
4	93634	29955.296173377594	6708.7537539682
4	93647	29962.369552877701	6703.0991828799
4	93652	29963.333039490275	6691.1554963356
4	93661	29965.317890498809	6689.239421145
4	93679	29970.646575592977	6692.0252345032
4	93706	29983.313560903079	6699.7108038984

