version 2
run Third-n5-15-20191016-17:05:08-2844
attr configname Third-n5
attr datetime 20191016-17:05:08
attr experiment Third-n5
attr inifile omnetpp.ini
attr iterationvars ""
attr iterationvarsf ""
attr measurement ""
attr network org.omnetpp.queueing.Pizza
attr processid 2844
attr repetition 15
attr replication ""
attr resultdir results
attr runnumber 15
attr seedset 15
param **.PS.maxInventoriedPS 5
param **.U1.interArrivalTime exponential(4s)
param **.U2.interArrivalTime exponential(6s)
param **.PS.serviceTimeForInventoryU1 exponential(1.4s)
param **.PS.serviceTimeForInventoryU2 exponential(1.4s)
param **.PS.serviceTimeDirectU1 exponential(1.8s)
param **.PS.serviceTimeDirectU2 exponential(1.8s)
param **.PS.probabilityProducing 0.8
param **.CS.serviceTimeU1 exponential(2.3s)
param **.CS.serviceTimeU2 exponential(2.3s)

vector 0 Pizza.EntryQueueU1 queueLength:vector ETV
attr interpolationmode sample-hold
attr title "queue length, vector"
vector 1 Pizza.CS queueLength:vector ETV
attr interpolationmode sample-hold
attr title "queue length, vector"
vector 2 Pizza.EntryQueueU2 queueLength:vector ETV
attr interpolationmode sample-hold
attr title "queue length, vector"
vector 3 Pizza.sink lifeTime:vector ETV
attr interpolationmode none
attr title "lifetime of arrived jobs, vector"
attr unit s
vector 4 Pizza.sink lifeTimeU1:vector ETV
attr interpolationmode none
attr title "lifetime of arrived jobs, vector"
attr unit s
vector 5 Pizza.sink lifeTimeU2:vector ETV
attr interpolationmode none
attr title "lifetime of arrived jobs, vector"
attr unit s
0	0	0	0
0	5	8.345496996421	1
0	7	8.569083940082	2
0	9	9.039654571862	3
0	17	10.834429848333	4
0	26	15.176464933403	3
0	32	15.925222711067	4
0	36	17.01754897767	3
0	41	17.438479864819	2
0	50	20.865667934469	1
0	57	22.341015346614	0
0	70	23.95638713054	1
0	71	25.612473951489	0
0	83	29.16883409245	1
0	85	30.981129405492	2
0	86	31.345199145158	1
0	93	33.712472203158	0
0	105	38.766977331051	1
0	107	39.099052307146	2
0	108	39.119140693347	1
0	113	39.306749436274	0
0	140	43.462112793838	1
0	144	45.124181924826	2
0	146	46.091024611263	3
0	150	46.960788095743	4
0	153	50.877163272368	3
0	159	51.569425334145	4
0	160	51.827095832182	3
0	169	56.508107792259	2
0	176	56.744645409563	1
0	183	57.846440252811	2
0	184	58.159508407047	1
0	190	59.165863985974	2
0	191	59.433455926847	1
0	197	59.933356607117	2
0	205	63.143821535458	3
0	207	63.192152848647	4
0	208	63.427208829388	3
0	215	65.755172575237	2
0	221	67.579264376053	1
0	226	68.189797647734	0
0	239	69.158306914438	1
0	241	70.760307861147	2
0	243	71.232717690532	1
0	248	72.004828751637	0
0	259	72.624248109202	1
0	260	72.782402274077	0
0	273	77.282198205646	1
0	276	78.168129690228	2
0	277	79.464564398673	1
0	284	79.973898631298	2
0	286	82.903977366403	1
0	292	83.796106180008	2
0	295	88.673304345597	1
0	301	91.282351091124	0
0	321	94.808032276865	1
0	323	94.812405170328	2
0	329	100.569714970693	3
0	331	101.099214944811	4
0	333	101.974759431069	5
0	334	102.357165319467	4
0	340	102.917627158339	5
0	347	104.969528873403	6
0	348	106.824610028052	5
0	353	107.057277296092	4
0	361	109.278311223373	5
0	362	109.53524541126	4
0	371	110.597887717857	3
0	378	113.299598388305	2
0	383	113.748842589836	1
0	392	115.789803679839	2
0	399	116.647552854272	1
0	404	117.389863380032	0
0	438	127.855582531493	1
0	440	131.071176386904	2
0	443	132.460148874124	1
0	448	132.544779186721	0
0	471	139.045970921353	1
0	473	139.395753877968	2
0	475	140.126718454239	3
0	477	140.142193321234	4
0	482	142.450833689155	5
0	483	142.671430857685	4
0	491	142.933778543231	5
0	494	143.329927585736	4
0	501	144.643538351761	3
0	506	144.755557564014	2
0	511	145.511773888451	1
0	516	145.583901305325	0
0	534	156.53205210658	1
0	541	157.261130111288	0
0	576	168.584445063342	1
0	578	168.613879143443	2
0	583	170.794212021371	3
0	587	172.639583143705	4
0	589	173.626881057701	5
0	590	176.153689590938	4
0	596	176.303718061106	5
0	597	178.069573000293	4
0	603	178.981949201416	5
0	607	179.921903672065	6
0	609	180.677292552059	7
0	611	181.060627339998	6
0	620	183.106497131934	7
0	622	184.030303507286	6
0	632	185.276560386776	5
0	639	186.662030721843	6
0	640	187.391427913231	5
0	646	188.435705773992	4
0	652	190.071726128261	3
0	659	192.723344711636	4
0	661	192.787603827707	5
0	664	196.58260762324	4
0	669	197.670663929618	3
0	674	199.399431289135	2
0	680	201.662309180157	1
0	685	202.384514095332	0
0	691	202.753581159059	1
0	693	203.068743177205	0
0	697	203.892395261614	1
0	706	211.910586577809	0
0	725	215.683947616636	1
0	726	215.750143759612	0
0	733	217.283277516498	1
0	735	219.34333737751	2
0	736	219.45312643241	1
0	742	220.874325496688	2
0	743	221.574667035693	1
0	750	222.227186470578	2
0	752	222.86578196439	1
0	758	223.447027342951	2
0	760	224.664115135401	3
0	764	226.157414972912	4
0	766	227.311572786856	5
0	768	227.889008068185	6
0	769	228.929008331603	5
0	774	229.201020384295	4
0	780	231.746786904973	3
0	786	234.103320460078	2
0	791	235.345813557828	1
0	797	236.06963711364	2
0	801	238.064727298266	3
0	804	239.849122456405	2
0	809	241.57931844023	1
0	819	245.886116472757	0
0	827	246.946298249553	1
0	831	248.093412144162	0
0	849	250.535115375149	1
0	851	251.52445193114	2
0	854	252.018986361635	1
0	859	254.236666241073	0
0	877	256.886599404799	1
0	880	257.182005008742	2
0	884	258.777854218898	1
0	899	263.845907434747	2
0	902	266.543975328421	1
0	912	267.778938233969	2
0	915	269.047575794943	3
0	917	269.983774127982	2
0	923	272.253087051383	3
0	927	275.279290471563	4
0	928	276.601174809233	3
0	935	279.455070403273	2
0	941	281.158040406414	1
0	950	284.239341576824	0
0	992	297.432427974567	1
0	998	300.899413428791	2
0	999	301.774171746274	1
0	1004	302.653488698864	0
0	1014	305.098459070776	1
0	1018	305.878742028393	0
0	1027	309.158823837863	1
0	1028	310.732300990043	0
0	1050	316.61844283252	1
0	1055	318.126566498411	0
0	1061	318.188141303736	1
0	1062	319.439958211741	0
0	1070	323.769955756127	1
0	1073	325.055163193314	2
0	1075	326.990919671164	1
0	1081	329.305864664041	0
0	1109	338.618963176823	1
0	1114	339.716398862068	0
0	1128	345.220426160845	1
0	1132	347.110593367268	0
0	1148	349.980146575756	1
0	1152	354.203660219802	2
0	1153	354.990006846496	1
0	1159	357.246066114175	0
0	1167	359.75295951502	1
0	1169	359.928833402005	2
0	1171	361.658313029935	3
0	1175	363.037666761632	2
0	1180	364.150669548927	1
0	1187	365.099796977437	2
0	1190	365.63383260873	3
0	1191	365.771583546314	2
0	1197	365.837490245155	3
0	1198	366.321350757674	2
0	1207	369.08732022511	1
0	1217	371.737375083925	0
0	1224	371.906680307142	1
0	1225	372.700975830494	0
0	1250	381.418073224865	1
0	1252	381.433651782836	2
0	1257	384.20434909253	1
0	1263	384.402480959013	2
0	1265	384.911299558353	3
0	1267	385.212612239407	4
0	1270	386.527023084147	3
0	1276	392.200316877472	2
0	1284	393.985114431783	3
0	1286	393.991241427887	4
0	1290	395.994223558236	5
0	1293	396.74801461722	4
0	1300	398.059284633649	5
0	1301	400.064914258743	4
0	1306	400.662971923735	3
0	1313	403.437342556163	2
0	1318	403.774896846031	1
0	1326	405.755031529953	0
0	1337	406.290156931966	1
0	1344	408.489151976096	0
0	1353	409.641961899752	1
0	1360	417.715499146872	2
0	1361	420.498635327588	1
0	1366	420.617036641383	0
0	1375	422.817077771834	1
0	1378	424.892551264902	2
0	1385	431.453884330966	3
0	1386	431.910927936386	2
0	1392	434.044621718965	3
0	1393	434.546992263071	2
0	1398	435.725960255449	1
0	1403	435.931789983627	0
0	1427	439.841205033909	1
0	1428	440.391870691172	0
0	1449	444.399848876207	1
0	1453	444.479634878342	2
0	1454	445.203804897488	1
0	1459	445.40696686257	0
0	1476	447.146793243189	1
0	1480	449.767398582987	0
0	1492	454.793818937133	1
0	1494	455.139570587596	2
0	1496	455.823172821289	3
0	1497	456.252750228495	2
0	1502	456.448331790553	1
0	1518	457.336365945024	2
0	1521	460.487763871246	1
0	1527	460.633453827591	2
0	1529	461.262456870193	3
0	1531	461.279983724276	4
0	1533	462.568804126632	3
0	1543	464.589268228523	4
0	1547	465.413047374392	5
0	1550	469.538461606163	4
0	1556	469.654303647818	3
0	1562	470.614511189445	2
0	1567	470.763209668414	1
0	1572	473.358848673082	0
0	1578	474.611304090693	1
0	1579	474.83280555598	0
0	1609	483.123838099654	1
0	1613	483.623617847865	2
0	1614	484.571436010563	1
0	1619	484.784038909689	0
0	1628	485.705481536856	1
0	1635	489.564371295902	0
0	1644	491.568486316278	1
0	1645	493.500401241937	0
0	1671	500.125620689382	1
0	1675	503.539822927662	2
0	1676	504.876208555054	1
0	1681	505.942844411796	0
0	1688	507.130405656689	1
0	1692	509.366387585366	0
0	1705	512.333654319126	1
0	1707	512.407927926547	2
0	1709	512.456942126602	3
0	1711	513.305390790998	4
0	1713	515.816562412984	5
0	1715	516.235859587186	6
0	1716	517.496464617319	5
0	1723	519.123376565957	6
0	1728	525.369120495304	5
0	1734	525.639943257831	6
0	1735	526.388826992469	5
0	1744	529.007006637577	4
0	1754	531.260571998243	3
0	1760	534.260235589749	2
0	1767	535.692221470532	3
0	1768	536.734582098656	2
0	1774	539.648063491095	1
0	1781	540.168147226933	2
0	1783	540.754966577592	3
0	1785	540.922159976142	4
0	1787	542.288619663213	5
0	1789	542.980700470108	6
0	1791	543.397169754214	7
0	1792	543.664360267862	6
0	1798	544.379970008596	5
0	1803	544.626672859153	4
0	1808	544.705853178989	3
0	1816	545.899898425133	4
0	1818	546.792357999669	3
0	1823	547.255359239803	2
0	1831	549.596243666773	3
0	1832	551.474913452828	2
0	1841	552.755841134358	3
0	1846	556.715131343191	2
0	1852	558.68299822285	1
0	1857	558.843849528028	0
0	1880	564.319311484295	1
0	1883	567.576120060641	0
0	1902	572.054905693622	1
0	1903	573.117053880252	0
0	1912	573.965922380323	1
0	1914	577.402542711	2
0	1917	579.122146592444	1
0	1923	579.45284916434	2
0	1924	580.216259445951	1
0	1930	581.12762732834	2
0	1931	581.317563802798	1
0	1937	583.212155671034	2
0	1938	583.36748457354	1
0	1945	583.746258456657	2
0	1952	585.583076683852	3
0	1954	586.011144632353	4
0	1956	587.022399216056	3
0	1965	589.527532127833	2
0	1976	594.40908589923	3
0	1977	594.450395520871	2
0	1984	594.918399098024	1
0	1991	595.741678031552	0
0	2015	604.255219272455	1
0	2017	606.549530655425	2
0	2019	606.573463994772	3
0	2020	607.216901265807	2
0	2027	608.791096220113	1
0	2033	608.847167454007	2
0	2040	611.286019240093	1
0	2047	614.21599664405	2
0	2053	616.022485343964	3
0	2055	616.855915040814	2
0	2063	618.443453828067	1
0	2069	618.594966444948	2
0	2074	621.004022397726	3
0	2075	622.304599361616	2
0	2082	623.463348945586	3
0	2084	623.736955719595	4
0	2085	624.311540428588	3
0	2090	624.673794187973	2
0	2096	627.952636026815	1
0	2102	628.514081952245	2
0	2103	631.446078259204	1
0	2108	631.60597526402	0
0	2136	637.552181268238	1
0	2138	637.782560334524	2
0	2139	638.307003079859	1
0	2146	639.367981594026	2
0	2149	641.716947639249	3
0	2150	642.38620036269	2
0	2155	642.487844979159	1
0	2161	642.82006047703	2
0	2166	646.175728098463	1
0	2171	647.372908051013	0
0	2206	654.65503822267	1
0	2207	658.118180252101	0
0	2218	662.961458338462	1
0	2221	664.062088903202	2
0	2223	664.181059728829	3
0	2224	664.533035912179	2
0	2230	667.400498209954	3
0	2233	668.836951173738	4
0	2235	669.524298006114	5
0	2236	669.524351785495	4
0	2243	670.147337878905	3
0	2252	672.171022762791	4
0	2256	673.587904845935	3
0	2262	674.563123397138	2
0	2268	676.055484534651	3
0	2271	677.186346159363	4
0	2275	679.950233387455	5
0	2276	682.166822081476	4
0	2282	682.382225685978	5
0	2286	685.649541097361	6
0	2288	686.338298430097	7
0	2289	686.387646248952	6
0	2297	688.257957161933	7
0	2300	689.517368314031	8
0	2307	693.235790416712	7
0	2312	693.977572796179	6
0	2318	695.192191036906	7
0	2321	695.625753053798	6
0	2327	696.157056120952	5
0	2336	699.043817598605	6
0	2337	701.129289487714	5
0	2346	704.165799505622	6
0	2349	706.760572998307	5
0	2355	706.854602164791	6
0	2357	711.408554166037	5
0	2363	711.635836403268	6
0	2365	711.931756242798	5
0	2371	714.116120116762	4
0	2377	715.566955380931	3
0	2384	716.077561417075	4
0	2385	718.796460368301	3
0	2393	720.903536647006	4
0	2395	721.05570214691	5
0	2396	721.698894134641	4
0	2406	726.324030099727	5
0	2407	728.361291791221	4
0	2414	729.392721144287	5
0	2417	732.727273113397	4
0	2423	734.207595556297	3
0	2429	734.577405100815	4
0	2430	735.353312695277	3
0	2435	736.774859115065	2
0	2442	740.393383544278	1
0	2449	742.55267871212	2
0	2451	746.468402541394	3
0	2454	748.73320204482	2
0	2460	749.13143449571	3
0	2462	749.310476217171	4
0	2464	752.323603378569	3
0	2471	755.857670175534	2
0	2476	756.164948885762	1
0	2481	756.205778884121	0
0	2509	762.930986696378	1
0	2510	764.160977115428	0
0	2536	769.810367082457	1
0	2540	773.238896055881	2
0	2541	775.167815790538	1
0	2547	776.105787920668	2
0	2550	777.091852356351	3
0	2552	779.379166153952	4
0	2553	779.641942366706	3
0	2559	780.950147170071	2
0	2565	781.852601974671	1
0	2570	784.45605526038	0
0	2584	787.864967221201	1
0	2586	788.346659432687	0
0	2603	792.646556956829	1
0	2607	793.278049871241	2
0	2608	794.018487234447	1
0	2615	795.050466568886	0
0	2632	798.532773383695	1
0	2634	798.718922099755	2
0	2635	799.000610667202	1
0	2641	800.071622485361	0
0	2665	805.24037836552	1
0	2666	806.77056729079	0
0	2692	815.986522113961	1
0	2696	817.057646548153	2
0	2697	817.606555743538	1
0	2704	819.364816297687	2
0	2705	819.394337338359	1
0	2710	821.117963537373	0
0	2723	824.555132490149	1
0	2724	825.055618343265	0
0	2737	826.6315383741	1
0	2741	830.359759255207	0
0	2747	830.791451190054	1
0	2749	833.58522623091	0
0	2760	835.432326733928	1
0	2761	835.461117630989	0
0	2770	837.555217653015	1
0	2774	838.543659640193	0
0	2784	841.832200755124	1
0	2785	842.847622076493	0
0	2806	859.349751111412	1
0	2807	860.100451282691	0
0	2826	865.020456094251	1
0	2827	867.870421488202	0
0	2867	884.131894452833	1
0	2878	891.724329078431	0
0	2893	894.868185065353	1
0	2894	897.026603675388	0
0	2908	899.427323058584	1
0	2914	902.94017399856	0
0	2922	903.631118789489	1
0	2923	903.759585775021	0
0	2934	904.996102071409	1
0	2936	905.444459972304	0
0	2955	909.253260324353	1
0	2956	914.007081695394	0
0	2966	917.745620752066	1
0	2967	917.747511683667	0
0	2988	923.466747927474	1
0	2989	923.488339659324	0
0	3013	926.996872198478	1
0	3021	933.080883185555	0
0	3044	939.628812685217	1
0	3045	940.102260176516	0
0	3073	949.890707966275	1
0	3076	950.619590696636	0
0	3104	961.560045575065	1
0	3106	961.94756813561	2
0	3110	963.129282091123	3
0	3115	965.40994435859	2
0	3121	966.132138714112	1
0	3128	966.988764613727	0
0	3140	970.524393078798	1
0	3142	971.295081905333	2
0	3145	972.179879425647	1
0	3154	976.606184569682	2
0	3157	978.421507207692	1
0	3162	978.558551923602	0
0	3183	984.240686012197	1
0	3184	984.486783347186	0
0	3226	998.347838242865	1
0	3227	1002.031361521646	0
0	3237	1005.27224136459	1
0	3245	1009.607114688784	2
0	3247	1009.792483385162	3
0	3248	1010.542234233882	2
0	3253	1013.08359213267	1
0	3259	1013.180961120109	2
0	3261	1013.208802067539	3
0	3262	1014.422832590698	2
0	3267	1015.084500364858	1
0	3274	1015.752918684481	2
0	3275	1015.995846184196	1
0	3280	1016.400521588761	0
0	3287	1018.765267458567	1
0	3288	1019.117266506954	0
0	3305	1023.057976891737	1
0	3307	1024.211223909265	2
0	3309	1025.718367271071	1
0	3316	1027.675335233819	0
0	3322	1027.798127318152	1
0	3325	1029.315729969092	0
0	3331	1029.419473500332	1
0	3335	1030.372878135815	0
0	3359	1036.153906741796	1
0	3360	1038.762559292675	0
0	3368	1039.522454303129	1
0	3369	1039.53411674577	0
0	3377	1041.038581831422	1
0	3379	1041.78163724828	2
0	3380	1041.805831222891	1
0	3393	1049.375522082798	2
0	3394	1050.152614305933	1
0	3401	1053.877827025355	0
0	3410	1056.295756432243	1
0	3416	1062.661613755644	2
0	3418	1064.563585479603	3
0	3421	1067.031019684743	2
0	3427	1068.039849278723	1
0	3435	1068.572866321034	2
0	3439	1071.629158502496	1
0	3444	1072.015248779767	0
0	3463	1072.897663142124	1
0	3465	1073.0917840338	0
0	3476	1074.755522949445	1
0	3478	1079.169522114435	0
0	3492	1084.769193043344	1
0	3494	1086.973529502833	0
0	3501	1088.319562649478	1
0	3504	1091.443149055106	0
0	3516	1093.959914924346	1
0	3517	1094.67493046201	0
0	3525	1095.825505232258	1
0	3528	1098.32627561852	0
0	3536	1100.567727639281	1
0	3537	1100.647921263851	0
0	3579	1112.819388682267	1
0	3581	1116.593971873955	2
0	3584	1120.905724277888	1
0	3589	1121.199994812899	0
0	3597	1123.096741899837	1
0	3599	1124.050933437663	2
0	3603	1124.209662786545	3
0	3604	1124.614602637712	2
0	3610	1126.560017128375	3
0	3611	1128.970397573419	2
0	3617	1129.870002571192	3
0	3621	1131.140861966248	4
0	3622	1131.733217370686	3
0	3627	1132.3161228254	2
0	3632	1132.335275767832	1
0	3637	1132.431790841587	0
0	3641	1132.561377737452	1
0	3644	1133.985991014191	0
0	3648	1136.651275711828	1
0	3655	1138.038198328932	2
0	3657	1138.394545052426	1
0	3662	1139.064873145099	0
0	3671	1140.175370666744	1
0	3673	1141.670685169987	0
0	3682	1143.507029204906	1
0	3686	1145.242926279693	2
0	3690	1146.351417522576	1
0	3703	1150.208676175468	0
0	3722	1156.415479808624	1
0	3723	1158.525088978254	0
0	3736	1161.386367660497	1
0	3738	1162.132553759173	0
0	3750	1164.289544432674	1
0	3752	1164.817216396344	0
0	3765	1168.174288852623	1
0	3770	1173.236873901102	0
0	3802	1181.790546621693	1
0	3806	1183.28928320195	2
0	3807	1183.823901476817	1
0	3817	1190.467990173941	0
0	3823	1192.005771554899	1
0	3826	1195.449529415633	2
0	3829	1197.265066201921	1
0	3834	1197.915194482961	0
0	3840	1198.268838898816	1
0	3841	1200.662309820317	0
0	3857	1206.208986874861	1
0	3864	1208.105923414025	0
0	3876	1209.651064508015	1
0	3877	1210.685113191004	0
0	3883	1211.370930797659	1
0	3886	1212.067702368977	0
0	3910	1215.981172329766	1
0	3912	1218.204795491654	2
0	3917	1219.635423648049	3
0	3918	1220.084472229569	2
0	3929	1223.332114682197	1
0	3936	1225.418377844686	2
0	3937	1226.340910931336	1
0	3950	1229.087209889614	2
0	3954	1233.462906749983	3
0	3955	1233.618980513885	2
0	3960	1234.236955967615	1
0	3966	1235.089762966066	0
0	3973	1238.528748373971	1
0	3976	1240.376729861751	2
0	3977	1243.01806160868	1
0	3985	1248.002726102103	2
0	3986	1249.399642667401	1
0	3992	1251.350399694621	0
0	4011	1254.424639437335	1
0	4013	1256.915222541372	2
0	4016	1257.9947860761	1
0	4021	1259.108009332416	0
0	4041	1266.445476047005	1
0	4044	1269.388789233197	2
0	4046	1270.717055755551	3
0	4047	1271.988793576705	2
0	4053	1272.309493363299	3
0	4055	1273.474867849952	2
0	4062	1274.966746956566	3
0	4064	1276.352661044717	4
0	4065	1276.571283358214	3
0	4070	1276.933355376331	2
0	4075	1277.830664521655	1
0	4080	1278.663764132753	0
0	4108	1285.464685094457	1
0	4110	1285.565965590533	2
0	4113	1286.212048720766	3
0	4115	1286.511423189422	4
0	4118	1286.931880961669	3
0	4124	1286.955552006542	2
0	4130	1286.970572026598	3
0	4132	1286.984855939692	4
0	4134	1287.891766285425	3
0	4139	1288.407067664456	2
0	4145	1293.908825038896	1
0	4152	1294.745142082992	2
0	4153	1296.863604679427	1
0	4160	1297.548878827833	2
0	4164	1300.249469787626	1
0	4170	1300.812304300443	2
0	4171	1300.825744508961	1
0	4178	1301.443277489464	2
0	4186	1308.619788322849	1
0	4196	1310.34104547703	2
0	4197	1310.352313431575	1
0	4202	1310.902150997648	0
0	4218	1313.208079606809	1
0	4224	1314.000942903162	2
0	4227	1314.12173434393	1
0	4232	1314.527718761435	0
0	4238	1314.837993324315	1
0	4241	1317.104207282704	0
0	4267	1319.097313356102	1
0	4270	1319.547408691585	2
0	4271	1324.907274740135	1
0	4277	1326.401085928808	0
0	4291	1332.326114821515	1
0	4293	1333.197357777503	2
0	4295	1335.520561068063	3
0	4296	1336.324725225574	2
0	4301	1336.643271127449	1
0	4310	1338.983483164841	2
0	4313	1339.973892599887	3
0	4316	1340.435241582735	2
0	4325	1341.94772241228	3
0	4327	1342.059092246621	2
0	4333	1342.746814864597	1
0	4340	1345.028635345758	0
0	4363	1350.515714961077	1
0	4366	1351.038948115203	2
0	4368	1352.260430915649	1
0	4373	1352.59604226027	0
0	4382	1355.678916531075	1
0	4385	1356.331960936748	0
0	4392	1357.058028469743	1
0	4394	1358.032812684631	2
0	4396	1361.583979956475	3
0	4398	1363.874565934723	4
0	4399	1364.240788791053	3
0	4406	1366.816220967989	4
0	4409	1368.46318145292	3
0	4417	1369.38483123607	2
0	4423	1372.966767245313	1
0	4429	1374.375310241457	2
0	4431	1375.524939027608	3
0	4433	1381.234154014034	4
0	4435	1381.974292671635	5
0	4437	1382.137580464577	6
0	4438	1383.097968104645	5
0	4444	1383.147568847688	6
0	4448	1384.874903312723	7
0	4449	1386.867983817237	6
0	4455	1387.215732691508	7
0	4457	1387.812463474608	8
0	4459	1390.213456235012	7
0	4468	1391.8634764176	8
0	4472	1394.36673943603	9
0	4473	1395.127529950864	8
0	4478	1397.727536200131	7
0	4484	1398.385161763492	6
0	4493	1404.683826082717	5
0	4500	1405.490734974514	6
0	4502	1408.396933190399	7
0	4503	1409.760369236651	6
0	4508	1409.909769685803	5
0	4515	1411.265006641085	6
0	4516	1411.386383490501	5
0	4521	1411.43713194262	4
0	4532	1416.323529542581	3
0	4539	1418.301375250049	2
0	4544	1418.675523840854	1
0	4553	1426.542830544782	0
0	4562	1428.36783884005	1
0	4564	1428.661437563777	2
0	4566	1429.983394797449	3
0	4567	1430.75219189342	2
0	4573	1431.454801626567	1
0	4580	1435.344316345641	0
0	4586	1435.569966532533	1
0	4588	1437.873133076226	2
0	4590	1440.038847704342	1
0	4595	1440.080650869544	0
0	4658	1460.550566882446	1
0	4659	1460.996047573199	0
0	4668	1461.637823464444	1
0	4673	1463.238213477643	2
0	4674	1463.387016573202	1
0	4680	1466.627728144193	0
0	4689	1468.227280020357	1
0	4694	1470.592442619783	0
0	4716	1477.000392845699	1
0	4717	1480.685577443694	0
0	4723	1480.884562481624	1
0	4724	1481.053918586973	0
0	4732	1482.574105196263	1
0	4733	1483.584171884901	0
0	4739	1484.366999492252	1
0	4746	1485.183007947803	0
0	4783	1490.321680673115	1
0	4788	1502.054997928266	0
0	4800	1503.565864330952	1
0	4802	1503.688612187427	0
0	4828	1509.4152213047	1
0	4829	1509.488585079258	0
0	4852	1514.781145813247	1
0	4855	1516.476702961416	0
0	4864	1517.335673921643	1
0	4868	1517.752405297761	2
0	4870	1518.003635551463	3
0	4875	1519.583250604383	2
0	4882	1523.747757379065	3
0	4884	1524.438959618697	4
0	4885	1525.975250368249	3
0	4892	1527.146883384084	2
0	4900	1528.246637255492	3
0	4901	1529.075269085361	2
0	4907	1532.282760997715	1
0	4919	1535.837944176647	2
0	4920	1537.150910419246	1
0	4926	1539.187279206534	0
0	4935	1543.751529393381	1
0	4938	1544.642699133488	2
0	4939	1544.901263978897	1
0	4944	1545.100968556961	0
0	4977	1552.513382276322	1
0	4981	1560.589234476121	0
0	4998	1567.722519204783	1
0	4999	1568.596872773652	0
0	5011	1571.553757051647	1
0	5017	1575.869318300123	2
0	5021	1576.116292366683	3
0	5022	1576.297948758103	2
0	5028	1576.828194157806	3
0	5030	1577.522825797781	2
0	5035	1578.463954973078	1
0	5041	1578.680234391243	0
0	5052	1580.846682784205	1
0	5054	1581.015195513899	2
0	5055	1581.244877024796	1
0	5060	1583.037668869321	0
0	5095	1592.214110838125	1
0	5097	1594.182647774745	2
0	5098	1595.901429283035	1
0	5104	1596.726943714771	0
0	5110	1597.361529300411	1
0	5112	1598.501621801653	0
0	5118	1599.999123804154	1
0	5120	1602.837648529296	0
0	5131	1605.945635692749	1
0	5135	1606.568235754874	2
0	5138	1607.433989124624	1
0	5143	1607.993991722801	0
0	5152	1609.0702114314	1
0	5154	1609.444412912671	2
0	5160	1612.217605254689	1
0	5165	1612.395630840766	0
0	5174	1614.006587466048	1
0	5178	1614.849520041948	2
0	5180	1616.978086397126	3
0	5182	1618.949540822479	2
0	5189	1620.895782752193	1
0	5196	1622.058716496982	0
0	5202	1622.977828348303	1
0	5203	1623.288758015283	0
0	5211	1626.306812865166	1
0	5212	1626.64456614796	0
0	5218	1628.054887944544	1
0	5220	1628.919449101829	0
0	5226	1630.399163121633	1
0	5234	1634.300548353748	2
0	5236	1635.173750883393	3
0	5238	1639.970478072073	4
0	5240	1640.39393683365	5
0	5242	1641.185694465548	6
0	5245	1643.166874195749	5
0	5251	1644.756391148406	4
0	5259	1645.818679551563	5
0	5263	1648.184246164757	6
0	5264	1648.401001469454	5
0	5269	1650.591889720016	4
0	5274	1650.917674240843	3
0	5281	1653.300764213634	2
0	5289	1654.476304336172	1
0	5295	1654.608346866064	2
0	5296	1655.300645609321	1
0	5304	1663.396690894305	0
0	5321	1666.135896437414	1
0	5323	1672.420626361965	2
0	5325	1675.341209482083	3
0	5327	1676.527533362182	4
0	5328	1676.550451952139	3
0	5334	1677.612622269535	2
0	5339	1677.956809066573	1
0	5345	1678.765687506976	2
0	5350	1679.673808884294	3
0	5351	1681.140197474942	2
0	5359	1682.308540424703	3
0	5361	1683.408638042208	2
0	5367	1685.270448500251	1
0	5374	1687.95033452268	2
0	5377	1689.760966810043	1
0	5383	1690.102571937112	2
0	5384	1690.860573891982	1
0	5389	1692.354956692251	0
0	5403	1697.526401359869	1
0	5404	1697.55373267433	0
0	5432	1705.588344584564	1
0	5435	1706.394393755972	0
0	5442	1710.779481255839	1
0	5444	1711.627914401945	2
0	5446	1712.925264376562	3
0	5447	1713.63971442456	2
0	5457	1716.953151855926	1
0	5467	1718.53766416897	0
0	5476	1720.252209628711	1
0	5478	1720.443559355173	2
0	5486	1722.623863876491	1
0	5491	1724.463923853476	0
0	5497	1724.642227538255	1
0	5499	1724.851180471082	2
0	5502	1726.70102666684	3
0	5504	1727.64161693024	4
0	5506	1728.763024336919	3
0	5511	1728.861428286751	2
0	5519	1731.634950372308	3
0	5521	1732.507512136161	4
0	5523	1735.39541924447	5
0	5524	1735.447764111939	4
0	5529	1736.364993606819	3
0	5535	1736.907428687468	2
0	5542	1738.659479648584	1
0	5547	1739.173414699108	0
0	5564	1744.48333695496	1
0	5567	1745.681414220611	2
0	5568	1746.993283125282	1
0	5574	1747.993314392507	0
0	5586	1750.700821006629	1
0	5590	1754.998365560995	2
0	5593	1755.763053071644	1
0	5600	1759.484156298639	0
0	5626	1766.487823074664	1
0	5628	1767.716998705784	2
0	5630	1768.625539507065	3
0	5632	1769.020313401977	4
0	5633	1769.29719646419	3
0	5640	1771.630936306239	4
0	5642	1771.942239400725	5
0	5643	1773.732763271534	4
0	5648	1773.802811257728	3
0	5654	1774.675389892883	2
0	5660	1775.080836588466	1
0	5668	1778.635448352974	2
0	5669	1780.188303721392	1
0	5674	1780.227173183228	0
0	5693	1785.729510277521	1
0	5694	1790.68583852673	0
0	5701	1792.587370875199	1
0	5703	1792.893161915478	0
0	5720	1799.420790770852	1
0	5722	1799.989274573855	0
0	5737	1803.295904806622	1
0	5739	1803.311276813657	2
0	5743	1807.469963576514	3
0	5745	1808.291599774355	4
0	5749	1808.812898549581	5
0	5750	1810.044600298656	4
0	5757	1811.402176327008	3
0	5762	1811.723669046816	2
0	5769	1813.106444641206	1
0	5776	1813.414055264523	2
0	5779	1814.570522209405	3
0	5781	1816.54128878532	2
0	5788	1817.95709429014	3
0	5789	1820.722269030221	2
0	5797	1824.366302415493	1
0	5802	1825.415090352093	0
0	5842	1843.714644515109	1
0	5843	1844.636224798872	0
0	5850	1845.086316095794	1
0	5851	1845.962775240888	0
0	5857	1846.297156861301	1
0	5859	1848.969068812421	0
0	5877	1855.340255636884	1
0	5880	1858.722586182028	0
0	5893	1860.884874442314	1
0	5894	1863.29662692524	0
0	5900	1863.442100644307	1
0	5904	1866.467839644036	0
0	5947	1883.012449814457	1
0	5951	1883.712116037932	2
0	5952	1886.970739945243	1
0	5957	1887.248527861471	0
0	5977	1889.982940768757	1
0	5981	1891.657227844345	0
0	5987	1892.03285904313	1
0	5988	1892.643657507264	0
0	6024	1909.409467236087	1
0	6026	1909.881174516638	2
0	6027	1911.897138548061	1
0	6035	1912.751366427694	0
0	6046	1916.293546598769	1
0	6055	1921.183186645235	2
0	6058	1922.778753461484	1
0	6063	1922.97524175027	0
0	6069	1923.147399601629	1
0	6070	1923.569534294801	0
0	6076	1924.031929974875	1
0	6077	1926.142048975855	0
0	6084	1927.388383074195	1
0	6085	1927.5617528001	0
0	6091	1927.667490538015	1
0	6093	1928.845116903425	2
0	6095	1929.896406413542	3
0	6096	1930.484025073442	2
0	6102	1930.910132218076	3
0	6112	1937.612602908199	2
0	6119	1939.393021955795	1
0	6126	1939.876528252015	2
0	6127	1939.963819663139	1
0	6135	1940.469009741117	2
0	6137	1940.953163021257	3
0	6140	1943.225474716538	2
0	6146	1945.587548911194	1
0	6154	1947.356226046588	2
0	6158	1948.863393897581	3
0	6160	1951.339180613518	2
0	6166	1951.393476352403	3
0	6167	1952.189105464328	2
0	6176	1954.347616022623	1
0	6182	1954.5222091516	2
0	6185	1955.160494343221	3
0	6187	1956.767326106556	2
0	6194	1959.221846372889	1
0	6202	1960.387081063804	2
0	6203	1960.903913414472	1
0	6213	1963.380516624633	2
0	6217	1966.478753048646	1
0	6222	1966.736885126773	0
0	6240	1970.628987715663	1
0	6242	1970.883770297958	2
0	6243	1971.903982856528	1
0	6250	1973.01499037115	0
0	6257	1975.069792211427	1
0	6258	1976.144914566038	0
0	6276	1982.247614776537	1
0	6277	1982.435414879675	0
0	6323	1995.325190422415	1
0	6327	1996.218017217081	2
0	6329	1996.235840136377	3
0	6330	2000.240012170312	2
0	6338	2006.59337689771	3
0	6340	2006.608468644879	4
0	6344	2009.390569934637	5
0	6345	2009.881843043685	4
0	6350	2011.408563706437	3
0	6365	2015.754598297325	4
0	6366	2015.937252684729	3
0	6373	2018.484568496821	2
0	6381	2020.331490674923	1
0	6388	2021.713309082006	0
0	6420	2030.5235467907	1
0	6421	2031.61566727807	0
0	6444	2037.867282770498	1
0	6445	2038.434623233169	0
0	6462	2043.840926020794	1
0	6464	2045.223227192994	2
0	6468	2047.181564744319	3
0	6470	2048.281754573534	2
0	6476	2049.000463840225	1
0	6482	2049.296973692401	0
0	6498	2052.520840012108	1
0	6500	2052.937918364295	2
0	6503	2053.139531207356	3
0	6505	2053.88161611141	4
0	6510	2054.9879997226	5
0	6512	2057.505014375565	4
0	6520	2059.272073887504	3
0	6526	2064.40241921631	2
0	6531	2064.96588130909	1
0	6538	2069.265922196189	0
0	6549	2074.189139282754	1
0	6551	2074.806981003238	0
0	6559	2075.71356391225	1
0	6561	2075.743097616466	2
0	6565	2078.739311193045	1
0	6572	2079.256399451149	2
0	6573	2080.635125169232	1
0	6579	2081.706144229375	0
0	6597	2091.234326724078	1
0	6603	2094.56219887572	2
0	6604	2094.815546547213	1
0	6614	2102.767289154771	0
0	6635	2105.373445074422	1
0	6637	2105.921113015548	0
0	6650	2110.990456487158	1
0	6651	2111.175011784609	0
0	6665	2115.87714718759	1
0	6666	2119.945980980211	0
0	6679	2122.804843838047	1
0	6683	2123.907920809981	2
0	6684	2124.015419976126	1
0	6691	2125.903314111394	2
0	6693	2126.005924270143	3
0	6695	2126.505887516893	4
0	6700	2131.567766145708	3
0	6708	2132.919788425163	2
0	6713	2134.348978874584	1
0	6718	2134.376432131776	0
0	6740	2141.026842192963	1
0	6743	2142.279690174987	0
0	6762	2146.820243364195	1
0	6763	2148.414688641509	0
0	6772	2150.305403958117	1
0	6775	2152.272965281566	0
0	6782	2152.951662695424	1
0	6783	2153.648808399111	0
0	6803	2158.561007152911	1
0	6806	2160.42967824547	0
0	6817	2165.192651591721	1
0	6825	2167.178825225897	0
0	6843	2175.262027051339	1
0	6845	2175.600897022777	2
0	6847	2178.134003372825	3
0	6848	2178.173892618373	2
0	6854	2178.849005479769	3
0	6857	2181.512306311833	4
0	6858	2183.505062098686	3
0	6864	2183.975771464261	4
0	6865	2184.478413787837	3
0	6871	2184.938180151165	4
0	6873	2189.159467778018	5
0	6874	2189.364631408268	4
0	6885	2193.612786578142	3
0	6891	2193.734413257949	4
0	6893	2194.579451401608	3
0	6902	2195.6872607969	4
0	6905	2199.06679746779	3
0	6910	2199.073956449211	2
0	6915	2200.354278776129	1
0	6932	2205.172183420864	0
0	6938	2205.175759585111	1
0	6942	2205.79509243489	0
0	6964	2209.530104168913	1
0	6966	2210.685829823753	2
0	6970	2214.173712918588	1
0	6977	2216.968556637245	0
0	7002	2223.55194572505	1
0	7004	2223.914885269926	2
0	7006	2224.786897195545	3
0	7008	2226.06379224815	4
0	7011	2226.527006624759	3
0	7020	2227.95283802053	4
0	7022	2230.477168276135	5
0	7023	2230.616619245593	4
0	7030	2231.563196530233	3
0	7036	2233.858702864854	2
0	7043	2235.865842187944	1
0	7052	2237.889388292336	2
0	7056	2238.57950447732	3
0	7061	2243.538435241886	2
0	7068	2245.434352930027	1
0	7073	2246.496608258961	0
0	7104	2260.363111525388	1
0	7107	2263.59271324555	0
0	7113	2263.652414522463	1
0	7114	2263.677797219492	0
0	7157	2273.499528740476	1
0	7162	2275.291208291453	2
0	7163	2276.528644812758	1
0	7168	2277.082420128876	0
0	7187	2284.437288541658	1
0	7191	2285.529287435572	2
0	7192	2286.40828553736	1
0	7197	2287.069626689169	0
0	7205	2289.125950282535	1
0	7209	2292.041204063471	2
0	7210	2295.842199868443	1
0	7218	2297.03214604851	0
0	7225	2297.586265742504	1
0	7227	2298.870770976655	2
0	7228	2299.074354618306	1
0	7236	2299.654728220227	0
0	7267	2307.87956323266	1
0	7270	2310.436216850897	0
0	7284	2315.038715189859	1
0	7287	2315.243508085191	0
0	7299	2316.777637019668	1
0	7300	2316.785102510612	0
0	7313	2319.309405759761	1
0	7314	2323.193129061875	0
0	7321	2325.147463788222	1
0	7322	2325.29602844967	0
0	7345	2335.686685786881	1
0	7346	2338.130150624717	0
0	7369	2347.211376102533	1
0	7375	2352.308158054715	2
0	7377	2359.421374768837	3
0	7378	2359.90810919037	2
0	7384	2360.804173701991	3
0	7385	2361.244336619965	2
0	7390	2362.64912230589	1
0	7395	2363.513728640835	0
0	7401	2365.859409412081	1
0	7403	2366.39630216554	2
0	7404	2366.827607331062	1
0	7410	2367.548756849863	0
0	7424	2370.978229566753	1
0	7427	2372.8480581315	0
0	7436	2377.365238482408	1
0	7437	2380.177633493725	0
0	7444	2382.287277563774	1
0	7446	2383.505525446525	2
0	7448	2388.572519750172	3
0	7449	2391.154775181711	2
0	7459	2395.4892892859	3
0	7461	2396.441083075061	4
0	7462	2396.839503737832	3
0	7467	2397.715851474351	2
0	7474	2400.77362868725	3
0	7475	2401.000126492303	2
0	7481	2401.893351659962	1
0	7486	2402.002318473873	0
0	7527	2411.501476351294	1
0	7536	2419.060262753517	0
0	7547	2421.824550576693	1
0	7555	2426.109709830274	0
0	7564	2430.785127219569	1
0	7566	2430.791615085029	2
0	7570	2432.138995238792	3
0	7571	2432.148754318392	2
0	7579	2435.242093944349	3
0	7581	2435.577221086451	2
0	7587	2439.163353566684	1
0	7593	2439.482578901895	0
0	7599	2439.712672026631	1
0	7600	2439.981426072137	0
0	7647	2451.126239063176	1
0	7649	2453.050875649226	2
0	7651	2453.331283097825	3
0	7652	2454.450633692587	2
0	7657	2454.664849406223	1
0	7663	2455.840721177186	2
0	7666	2456.455803256183	3
0	7670	2458.118642518324	4
0	7672	2459.659468057072	3
0	7678	2461.631838933426	4
0	7679	2462.098319276115	3
0	7685	2462.627301596879	2
0	7691	2463.834260426205	1
0	7698	2465.703692361203	2
0	7700	2466.913198099055	3
0	7702	2468.212684511745	4
0	7707	2471.589773521836	3
0	7712	2471.677431977775	2
0	7717	2474.058056559117	1
0	7722	2474.861937945856	0
0	7735	2476.304479714749	1
0	7737	2476.373590501385	2
0	7739	2478.069051088598	1
0	7746	2479.100821053213	0
0	7752	2479.84850495103	1
0	7753	2479.933251054387	0
0	7766	2482.938928851103	1
0	7769	2485.056032702582	2
0	7772	2485.922048541162	3
0	7774	2487.223232628594	4
0	7776	2489.039225636462	3
0	7782	2489.358600613615	2
0	7790	2490.666824378373	3
0	7795	2493.891865382988	2
0	7801	2494.911354901014	3
0	7804	2496.543178002739	4
0	7806	2496.60957203589	5
0	7808	2498.118318495758	4
0	7814	2498.457502227921	5
0	7815	2499.229686622653	4
0	7822	2500.524719484353	5
0	7824	2501.162636507976	4
0	7830	2501.850805695883	3
0	7836	2503.448945063221	2
0	7843	2504.905872802797	1
0	7849	2506.362555525413	0
0	7860	2506.913804050458	1
0	7865	2509.431241062529	2
0	7867	2509.809937243722	3
0	7868	2510.066650549667	2
0	7878	2513.859032161138	3
0	7879	2514.046207877712	2
0	7884	2514.447035328831	1
0	7891	2516.072766017005	0
0	7898	2517.071275641875	1
0	7901	2518.057070962577	0
0	7921	2520.915371153247	1
0	7924	2523.103204085354	0
0	7932	2524.830488258787	1
0	7934	2525.46162504165	0
0	7960	2529.831706602498	1
0	7965	2531.397134083601	0
0	7972	2532.514502821262	1
0	7973	2533.913273277779	0
0	7985	2539.292842626162	1
0	7986	2539.583438313359	0
0	8007	2544.468575800118	1
0	8009	2547.065775260554	2
0	8011	2547.13138088785	3
0	8013	2552.229504417781	4
0	8015	2552.454465265415	5
0	8017	2554.092599461294	6
0	8019	2554.968857811785	7
0	8021	2556.650295738509	8
0	8024	2557.423778407163	7
0	8031	2558.782425208002	8
0	8033	2559.229285979673	9
0	8034	2560.327404994704	8
0	8039	2560.620057572997	7
0	8052	2562.951502675666	6
0	8057	2563.130268189531	5
0	8062	2565.364238424014	4
0	8070	2566.586504063295	3
0	8078	2570.656266589367	2
0	8082	2573.532048063392	3
0	8086	2574.924477971596	4
0	8090	2576.215048605098	5
0	8095	2577.828744186732	4
0	8100	2578.497214786947	3
0	8106	2579.22991711752	4
0	8107	2579.722162193993	3
0	8114	2582.575234531219	4
0	8116	2584.466025200498	3
0	8125	2586.20133258783	4
0	8126	2586.490556767139	3
0	8133	2586.759123620035	4
0	8135	2587.254585804494	3
0	8140	2588.685819801812	2
0	8148	2589.981518575459	3
0	8152	2593.744782352171	4
0	8153	2594.828962888086	3
0	8158	2595.021297769166	2
0	8163	2596.235256346242	1
0	8167	2596.555745667649	2
0	8172	2600.899349326871	1
0	8178	2605.978462569216	2
0	8180	2606.653073859842	1
0	8188	2609.954537865282	2
0	8190	2610.302312734976	3
0	8192	2610.682285509826	4
0	8193	2614.684449775721	3
0	8198	2616.711899862628	2
0	8205	2618.822538705812	1
0	8212	2620.580868130441	2
0	8223	2626.245757634643	3
0	8224	2629.514213861537	2
0	8232	2630.890129736217	1
0	8241	2633.453405302201	2
0	8242	2633.868064679789	1
0	8248	2636.004090657016	0
0	8260	2638.386661635871	1
0	8262	2640.49066151723	2
0	8263	2641.432171031521	1
0	8268	2641.860962913695	0
0	8281	2644.868716204979	1
0	8285	2645.63655723952	2
0	8289	2648.558564098527	1
0	8297	2650.173532590484	0
0	8309	2652.13628208858	1
0	8312	2655.513132821961	0
0	8344	2669.392218017503	1
0	8347	2676.457365607854	0
0	8360	2679.134429745184	1
0	8363	2684.455336469845	0
0	8387	2696.845399866206	1
0	8389	2699.19815245404	2
0	8392	2699.599947098384	1
0	8400	2701.494606798186	0
0	8427	2706.693179507485	1
0	8430	2707.855099857674	0
0	8471	2726.502776346957	1
0	8472	2728.476658768515	0
0	8487	2731.461178508052	1
0	8489	2732.079306959957	2
0	8490	2733.063056382379	1
0	8496	2735.095301526074	2
0	8498	2735.292859319651	3
0	8501	2738.086068926482	4
0	8504	2739.153466148994	3
0	8511	2742.087240196353	4
0	8512	2743.813017705101	3
0	8517	2744.456971069813	2
0	8523	2746.02953592434	3
0	8528	2748.201312034966	4
0	8530	2749.73061238963	3
0	8539	2754.124325822747	4
0	8540	2754.517940552526	3
0	8551	2761.27083747332	2
0	8557	2762.648652619844	1
0	8562	2762.685207056296	0
0	8572	2768.760618018859	1
0	8573	2769.385603635263	0
0	8603	2783.238103433872	1
0	8609	2786.306459129371	2
0	8610	2786.836351116418	1
0	8615	2788.457319529656	0
0	8621	2788.843409170686	1
0	8624	2789.141146941281	0
0	8641	2792.050163316808	1
0	8643	2792.661397590658	2
0	8646	2797.369131885931	1
0	8651	2798.146932702026	0
0	8674	2804.857007551407	1
0	8677	2805.946028650169	2
0	8678	2806.39929898334	1
0	8685	2807.050414446167	0
0	8691	2808.315713558861	1
0	8695	2810.158276670946	0
0	8713	2816.848493957074	1
0	8714	2816.902858020411	0
0	8720	2817.09288710811	1
0	8722	2817.189845077693	2
0	8724	2817.267893532936	3
0	8730	2820.644767952293	2
0	8737	2821.912539872108	1
0	8742	2823.502151420891	0
0	8779	2831.313585551066	1
0	8784	2834.094639614365	0
0	8793	2835.11580353267	1
0	8797	2838.14083374714	0
0	8804	2840.28532876101	1
0	8805	2841.66083631949	0
0	8813	2842.402885048646	1
0	8824	2848.852914419745	0
0	8858	2856.738276310738	1
0	8862	2857.243599409569	2
0	8864	2858.369282909443	3
0	8865	2859.208050871819	2
0	8871	2861.915701113424	1
0	8876	2863.857341928667	0
0	8884	2865.891401670444	1
0	8885	2866.538693328462	0
0	8895	2867.752029846626	1
0	8901	2869.132467821949	0
0	8914	2872.741290419994	1
0	8916	2872.818382358264	2
0	8918	2873.134481412746	3
0	8919	2873.395187884346	2
0	8925	2874.111613468039	3
0	8928	2876.506133371689	4
0	8930	2877.122858256619	5
0	8932	2877.896847853689	6
0	8934	2878.511180817501	7
0	8938	2883.938845671683	8
0	8939	2886.255251778004	7
0	8946	2886.43363227291	6
0	8955	2887.250123708714	5
0	8961	2887.470625646158	6
0	8963	2887.559895095282	7
0	8964	2887.60985167289	6
0	8970	2888.935854035894	7
0	8975	2891.063915902213	6
0	8980	2892.066317073506	5
0	8987	2893.029710795119	6
0	8988	2894.230802727764	5
0	8997	2896.142697519942	4
0	9002	2896.474021893444	3
0	9007	2896.756935737355	2
0	9014	2899.169075898639	1
0	9021	2900.455732267838	0
0	9040	2908.495612773536	1
0	9044	2913.726430318147	2
0	9047	2915.722586320311	1
0	9053	2918.638274592078	0
0	9075	2921.56746815731	1
0	9076	2921.734533458148	0
0	9088	2923.739368197188	1
0	9090	2924.383350032003	2
0	9091	2924.779115789434	1
0	9096	2924.877730344604	0
0	9116	2931.567374316403	1
0	9117	2932.469704526664	0
0	9129	2934.430670163746	1
0	9130	2935.000972298984	0
0	9145	2939.715226283178	1
0	9148	2943.019178351208	0
0	9154	2943.060024949532	1
0	9156	2944.224513533265	2
0	9161	2946.619885340218	3
0	9164	2947.478937279785	2
0	9170	2948.55519121552	3
0	9171	2949.379942230015	2
0	9176	2950.093899502242	1
0	9186	2952.023058206234	2
0	9190	2954.679782354688	3
0	9192	2956.963007429107	2
0	9197	2957.527389706402	1
0	9202	2957.829952435031	0
0	9242	2967.09350413492	1
0	9248	2971.765838269769	2
0	9249	2973.152686102873	1
0	9256	2974.922354222392	0
0	9282	2989.819310329861	1
0	9285	2990.180375068679	0
0	9292	2992.796793431975	1
0	9293	2994.519933356632	0
0	9311	2998.326671983311	1
0	9312	2998.424620180474	0
0	9318	2998.95742856396	1
0	9321	3001.144704260771	0
0	9327	3001.528928544725	1
0	9330	3002.845787462867	0
0	9362	3017.629832134552	1
0	9365	3017.934504780078	0
0	9376	3019.153281038914	1
0	9378	3019.167915573412	0
0	9384	3019.231466246571	1
0	9386	3020.280979144081	0
0	9392	3020.32892558898	1
0	9394	3021.329112311357	2
0	9397	3022.671422226151	1
0	9403	3023.111413499904	2
0	9404	3023.82393699667	1
0	9411	3025.911741860643	0
0	9426	3029.228164280582	1
0	9427	3030.331788184782	0
0	9442	3034.040944968912	1
0	9444	3034.658794659621	2
0	9449	3037.983306263554	1
0	9455	3038.161160176403	2
0	9457	3039.327833242351	1
0	9465	3042.068183129921	0
0	9479	3044.849183666175	1
0	9480	3050.578078799104	0
0	9506	3058.175540144413	1
0	9518	3064.465161321981	0
0	9537	3069.377369699899	1
0	9539	3071.420748450209	2
0	9541	3072.587711220851	3
0	9542	3074.221091103141	2
0	9547	3074.369516402286	1
0	9553	3076.71613511741	0
0	9565	3078.956321328003	1
0	9567	3079.366248604815	0
0	9576	3080.039960573208	1
0	9579	3081.713989562813	0
0	9589	3083.785622109216	1
0	9593	3086.362273391295	2
0	9595	3088.056246879747	1
0	9601	3090.921048357845	2
0	9603	3093.406299481443	3
0	9605	3094.06566233492	4
0	9610	3095.67198403128	5
0	9612	3096.448459443809	6
0	9614	3098.073810289965	7
0	9617	3099.027882978107	8
0	9620	3099.329785574043	7
0	9625	3099.44284949674	6
0	9633	3101.597015538466	7
0	9634	3103.38518591969	6
0	9640	3104.893706372523	5
0	9647	3106.457093979794	4
0	9653	3107.306231138362	3
0	9659	3108.223063295616	2
0	9670	3111.246078629015	3
0	9672	3114.570797452879	4
0	9673	3114.691802600375	3
0	9680	3116.777483359263	2
0	9687	3119.64550626275	1
0	9693	3120.00475790037	2
0	9695	3120.342319183854	1
0	9700	3120.978234555659	0
0	9707	3121.500593652061	1
0	9709	3122.455469730758	2
0	9710	3122.582936886231	1
0	9715	3122.787033873663	0
0	9721	3123.845631099108	1
0	9722	3123.926834439903	0
0	9728	3125.108653079262	1
0	9730	3126.467291634677	0
0	9737	3127.597798562196	1
0	9744	3135.758093981098	0
0	9757	3139.584810549108	1
0	9758	3142.27657325778	0
0	9790	3147.09653455003	1
0	9792	3147.412254625516	2
0	9796	3152.247246844064	3
0	9798	3153.436419926162	4
0	9800	3154.013288404089	5
0	9801	3154.24398904537	4
0	9806	3154.584279522357	3
0	9814	3157.643491713399	2
0	9820	3157.916679417426	3
0	9824	3159.721627289083	4
0	9830	3160.99735685649	5
0	9834	3162.187775067995	6
0	9835	3162.651483717052	5
0	9841	3163.263111903525	4
0	9849	3165.830281157328	3
0	9857	3168.114008727097	2
0	9862	3168.690364315541	1
0	9868	3169.878122903799	2
0	9869	3169.907813986186	1
0	9874	3171.649761554073	0
0	9882	3172.610150527105	1
0	9886	3175.65413067063	0
0	9902	3182.380315331032	1
0	9903	3182.617270919822	0
0	9909	3182.992522020641	1
0	9910	3184.404341517072	0
0	9918	3186.122471445199	1
0	9923	3192.259005558735	0
0	9933	3194.392366073822	1
0	9936	3194.824835306352	0
0	9943	3195.282023558944	1
0	9945	3195.677744551698	2
0	9946	3196.235906855621	1
0	9952	3198.0908767424	0
0	9962	3199.864698621028	1
0	9965	3200.954790161692	0
0	9974	3202.811418922564	1
0	9977	3203.008081549294	0
0	9983	3203.023436301101	1
0	9987	3204.06196525002	0
0	10001	3204.480350780174	1
0	10005	3206.844695147809	0
0	10033	3219.554291486472	1
0	10034	3219.726280896531	0
0	10053	3222.434264433088	1
0	10056	3226.016021778525	0
0	10063	3232.767807971677	1
0	10066	3235.648389527124	0
0	10075	3237.266621812183	1
0	10078	3241.550565763975	0
0	10093	3245.407419724531	1
0	10094	3245.653691837558	0
0	10103	3248.181222753469	1
0	10104	3249.004446893621	0
0	10120	3260.697467711438	1
0	10123	3263.908290896406	0
0	10129	3264.554028044625	1
0	10131	3266.49527264409	0
0	10140	3266.965594138583	1
0	10145	3267.87234321628	2
0	10147	3268.847623077436	3
0	10149	3269.320162004782	4
0	10152	3269.756089220472	5
0	10153	3270.079434158093	4
0	10159	3273.288558381688	3
0	10166	3275.34573665987	4
0	10167	3280.099564832869	3
0	10173	3281.066804325583	2
0	10178	3281.739109336298	1
0	10185	3282.178904531438	2
0	10186	3283.434301640713	1
0	10191	3284.770274878949	0
0	10197	3286.207969718018	1
0	10200	3287.481314659074	2
0	10205	3288.21723916263	1
0	10211	3289.256016123426	0
0	10238	3293.417584837979	1
0	10239	3293.507973108164	0
0	10245	3294.486124634006	1
0	10247	3295.470200465813	0
0	10261	3298.085807137504	1
0	10262	3298.582019043102	0
0	10282	3302.853175338305	1
0	10284	3303.333549905981	0
0	10296	3305.5839611388	1
0	10297	3306.23908538046	0
0	10303	3306.706719279388	1
0	10305	3307.761737132177	0
0	10316	3309.038086278564	1
0	10319	3309.816808912289	2
0	10320	3310.072300812102	1
0	10326	3310.236600141253	0
0	10348	3316.259826698999	1
0	10350	3316.380767703777	2
0	10352	3316.525626938469	3
0	10354	3318.049668965801	4
0	10359	3322.191635543467	3
0	10365	3323.615341317341	2
0	10371	3324.058919716038	3
0	10379	3327.666446251527	4
0	10380	3328.292228963337	3
0	10387	3329.10382891974	4
0	10389	3330.264081294549	3
0	10396	3331.371523476919	4
0	10398	3332.372774301762	3
0	10405	3333.498892025641	4
0	10408	3334.8923124594	5
0	10409	3335.024983821004	4
0	10419	3344.635257003889	3
0	10424	3344.917584543938	2
0	10430	3344.967557765814	1
0	10437	3345.972909998875	0
0	10450	3349.311858986489	1
0	10451	3349.951718121945	0
0	10463	3350.202828612928	1
0	10465	3351.121087123671	2
0	10466	3353.123851764196	1
0	10472	3353.680361559362	2
0	10473	3353.838865449894	1
0	10479	3354.999072400659	2
0	10482	3358.231356796331	3
0	10485	3360.229902302618	2
0	10491	3363.919627081084	1
0	10497	3364.650067773554	2
0	10501	3365.463469529099	3
0	10505	3367.300700326648	4
0	10507	3368.515851662045	5
0	10508	3370.439822313433	4
0	10513	3371.213488093982	3
0	10519	3371.39039216009	4
0	10524	3373.915751452372	3
0	10531	3375.769474599619	4
0	10532	3376.518808597782	3
0	10538	3378.260444120073	2
0	10544	3381.438352813912	1
0	10550	3382.837326729107	2
0	10552	3383.371963386737	3
0	10554	3385.279074902837	4
0	10556	3386.230628003041	5
0	10557	3387.881056867587	4
0	10563	3390.03502532119	3
0	10569	3390.357808279478	2
0	10574	3390.51526651578	1
0	10584	3393.859537672947	0
0	10590	3394.009207327322	1
0	10593	3395.363646697783	2
0	10594	3396.336046879323	1
0	10599	3397.409767428308	0
0	10617	3401.928916732631	1
0	10618	3403.046206311687	0
0	10644	3408.326549065471	1
0	10645	3409.028473864731	0
0	10657	3411.416854152138	1
0	10658	3411.919304540778	0
0	10675	3416.473745415635	1
0	10680	3418.326375493072	0
0	10697	3424.760991599808	1
0	10700	3426.941554732572	0
0	10706	3427.576687563862	1
0	10707	3428.156517786767	0
0	10744	3444.374412072406	1
0	10745	3447.084382388279	0
0	10752	3449.019216302619	1
0	10753	3449.767634636489	0
0	10768	3453.21890574869	1
0	10772	3459.354422208531	2
0	10774	3459.52862834872	3
0	10776	3462.021677492222	4
0	10780	3466.076822925914	5
0	10784	3468.003919716889	6
0	10786	3468.790425513407	7
0	10788	3469.233887998687	8
0	10789	3471.410292087119	7
0	10794	3471.580593856629	6
0	10802	3473.252449568333	7
0	10805	3473.873474016662	8
0	10809	3477.859906904484	7
0	10814	3478.906814886549	6
0	10820	3479.550553133096	7
0	10822	3480.465405954925	6
0	10827	3480.564016771146	5
0	10832	3480.580046635835	4
0	10837	3482.772387588493	3
0	10849	3484.50282536676	4
0	10850	3486.935748807902	3
0	10855	3487.116170223518	2
0	10860	3488.262328317495	1
0	10866	3489.529099685308	2
0	10868	3493.852571454613	3
0	10870	3497.091876224817	4
0	10873	3498.708967546523	3
0	10877	3498.950553439315	4
0	10880	3500.978476906532	3
0	10886	3505.40168504408	4
0	10894	3508.626738762463	3
0	10899	3509.329301644868	2
0	10906	3510.477412349776	1
0	10910	3510.930077458381	2
0	10916	3512.047944447219	3
0	10921	3514.833432109602	4
0	10923	3515.213739880185	5
0	10927	3520.477343711181	4
0	10942	3524.310282529502	5
0	10945	3528.668171797558	4
0	10950	3529.470715692767	3
0	10955	3529.744302136381	2
0	10960	3529.781581131191	1
0	10969	3532.897563881026	2
0	10971	3533.342110172317	3
0	10975	3535.882794230468	4
0	10976	3536.677858116023	3
0	10981	3538.28111200887	2
0	10987	3539.765760958062	3
0	10988	3541.748463204446	2
0	10994	3541.889639265056	3
0	10998	3543.068610212483	2
0	11003	3543.620078160074	1
0	11010	3544.34338374121	0
0	11034	3550.07246549434	1
0	11036	3550.43354726843	0
0	11042	3552.692092915971	1
0	11049	3558.004257525736	2
0	11056	3560.553179528537	1
0	11061	3560.666978290779	0
0	11082	3568.851191438058	1
0	11083	3570.67290411249	0
0	11089	3572.871276716746	1
0	11091	3576.902792911195	0
0	11099	3577.700633478749	1
0	11101	3578.408211299548	2
0	11103	3578.733732616353	3
0	11105	3579.141373115331	4
0	11108	3579.947542640112	3
0	11113	3580.162757725418	2
0	11118	3580.3356270702	1
0	11124	3581.339309673458	2
0	11125	3582.657539909162	1
0	11130	3582.715180601794	0
0	11151	3586.006850621437	1
0	11152	3586.215000423021	0
0	11158	3586.301157064277	1
0	11162	3588.149251588031	2
0	11165	3593.615373349849	1
0	11171	3593.973907681763	0
0	11203	3604.079077854761	1
0	11207	3606.099490089937	2
0	11209	3606.975309340983	3
0	11210	3607.511940530889	2
0	11215	3607.685834567018	1
0	11221	3610.582402686892	2
0	11223	3612.026486857307	3
0	11229	3613.63968845714	4
0	11231	3618.420991099548	5
0	11237	3619.558144030765	6
0	11238	3622.997627709172	5
0	11245	3624.057454336915	6
0	11246	3629.579825192175	5
0	11255	3631.38465808863	6
0	11257	3631.597340787913	7
0	11258	3631.901452682738	6
0	11263	3632.034763949177	5
0	11271	3632.529829514899	4
0	11282	3637.425432184643	3
0	11289	3638.106894563543	2
0	11294	3638.256088136488	1
0	11300	3639.746805134253	0
0	11324	3641.877832201209	1
0	11329	3645.603097550618	2
0	11331	3646.181132607905	1
0	11336	3646.741801056565	0
0	11347	3648.90368255328	1
0	11348	3649.316236195213	0
0	11375	3660.48881837364	1
0	11378	3662.399632529813	2
0	11380	3662.658030484267	3
0	11382	3665.104807761409	2
0	11388	3666.947980756964	1
0	11394	3667.78788574758	2
0	11397	3669.29769176284	3
0	11398	3670.706324205127	2
0	11403	3671.896346593871	1
0	11408	3673.596214930366	0
0	11423	3678.948753977314	1
0	11425	3679.631954222626	2
0	11427	3680.347827767821	3
0	11428	3681.322240755856	2
0	11434	3682.176610116389	3
0	11435	3682.856248217621	2
0	11441	3683.849606030419	3
0	11442	3684.583842940871	2
0	11447	3684.615778697602	1
0	11453	3685.736147132985	0
0	11470	3687.808536771751	1
0	11475	3692.513477286485	2
0	11476	3693.826409441101	1
0	11483	3694.253237925005	2
0	11486	3695.404807694073	1
0	11498	3698.099697872868	0
0	11510	3700.409927910225	1
0	11512	3701.495449592483	2
0	11515	3703.153258170737	1
0	11522	3706.793300798818	2
0	11524	3707.868281262576	3
0	11525	3709.84595428066	2
0	11531	3709.874762604339	3
0	11536	3714.443269116346	4
0	11538	3714.721598630561	5
0	11540	3715.066137061195	6
0	11542	3715.358922779075	7
0	11543	3715.927616762242	6
0	11549	3717.648131746804	5
0	11555	3718.885943555147	4
0	11561	3719.017545034069	3
0	11568	3720.148537453994	4
0	11571	3721.892621866571	3
0	11581	3728.226375147126	2
0	11587	3730.298172582998	1
0	11595	3731.490871101117	2
0	11597	3731.581237431642	3
0	11599	3732.263081540587	4
0	11601	3732.399351596565	5
0	11604	3732.744938020563	6
0	11605	3734.02560112382	5
0	11610	3734.515350704816	4
0	11618	3738.026705656023	5
0	11621	3738.128012023906	6
0	11622	3738.51361989593	5
0	11628	3739.030884520129	6
0	11630	3739.719735641704	5
0	11637	3742.256624341882	4
0	11643	3742.920170499409	5
0	11645	3743.536469608216	6
0	11649	3744.927037557944	7
0	11650	3746.595758045214	6
0	11656	3749.142588958382	5
0	11661	3749.173452428468	4
0	11668	3751.137084541023	3
0	11675	3751.390627157238	4
0	11677	3756.837869228194	3
0	11682	3758.001126729811	2
0	11688	3759.087389751195	1
0	11694	3760.957917836419	0
0	11705	3764.703918288352	1
0	11707	3765.523888245566	0
0	11714	3766.107283820476	1
0	11716	3767.509447984186	2
0	11719	3769.265174173191	3
0	11720	3770.489031983849	2
0	11728	3772.050051620644	1
0	11733	3773.288844830568	0
0	11749	3774.784592454888	1
0	11754	3776.449131156108	2
0	11757	3779.109559598078	3
0	11760	3781.383817848638	2
0	11766	3782.818355431934	1
0	11772	3784.318975939673	0
0	11781	3785.985995648205	1
0	11782	3786.102918311474	0
0	11789	3788.80536050488	1
0	11790	3789.218546381201	0
0	11802	3791.295028791323	1
0	11804	3791.852936122971	2
0	11806	3793.772139648923	3
0	11807	3797.663853575915	2
0	11812	3798.079994553107	1
0	11818	3798.177094650323	2
0	11821	3800.976932926428	1
0	11827	3801.886387949427	0
0	11839	3806.453428540881	1
0	11840	3809.027020509459	0
0	11846	3809.506366797849	1
0	11848	3809.600865838565	2
0	11850	3810.858080749736	3
0	11851	3810.868065500614	2
0	11860	3812.273486877926	3
0	11862	3812.56582678202	4
0	11866	3813.538906620554	5
0	11869	3817.537730949393	4
0	11875	3819.288783680061	3
0	11880	3821.065367777507	2
0	11886	3821.706873943646	3
0	11888	3822.669931030089	2
0	11893	3823.304249663054	1
0	11899	3823.521891693191	0
0	11906	3824.400939648637	1
0	11910	3826.716304816903	0
0	11921	3826.803397066998	1
0	11924	3828.508332050908	0
0	11938	3829.59020146661	1
0	11940	3830.36494193383	2
0	11942	3832.691917332026	3
0	11943	3835.540125480417	2
0	11948	3837.055000707028	1
0	11955	3837.689952979902	2
0	11958	3839.09448081248	1
0	11965	3840.426342102782	2
0	11966	3841.572676299478	1
0	11973	3842.481218640128	2
0	11974	3847.230965439823	1
0	11983	3849.096848890453	0
0	12009	3858.470162693457	1
0	12010	3858.769215178666	0
0	12031	3866.679627149331	1
0	12032	3869.308752674935	0
0	12059	3877.391966154358	1
0	12065	3879.822813794405	2
0	12067	3881.670070611311	3
0	12068	3883.011409474923	2
0	12073	3883.264325569701	1
0	12080	3883.93732282005	2
0	12084	3885.865572757862	1
0	12091	3889.482591086979	0
0	12109	3894.978919338982	1
0	12111	3895.262361558477	2
0	12112	3897.945812079617	1
0	12118	3898.129365669149	0
0	12145	3910.666248618375	1
0	12151	3915.901119952654	2
0	12153	3916.835007081579	3
0	12156	3923.438010786905	2
0	12162	3923.45013897572	3
0	12165	3926.101606277622	4
0	12167	3927.022220252317	5
0	12169	3930.331209833018	6
0	12170	3930.90200226412	5
0	12176	3932.823560255678	4
0	12181	3933.854384475816	3
0	12190	3938.593289440639	2
0	12195	3939.018017310079	1
0	12205	3941.955460493392	0
0	12213	3943.074046619665	1
0	12214	3944.517799032497	0
0	12221	3945.017061988049	1
0	12222	3945.674900321494	0
0	12229	3947.835885062477	1
0	12230	3951.679596542112	0
0	12242	3958.771114163083	1
0	12244	3959.053345177146	2
0	12247	3961.513187765408	1
0	12252	3962.040324665553	0
0	12268	3967.170200721507	1
0	12272	3969.231318417216	2
0	12274	3969.402392992568	3
0	12275	3970.334083776545	2
0	12280	3970.762991234599	1
0	12287	3971.702755069375	0
0	12308	3975.846389106033	1
0	12312	3976.390524692046	2
0	12313	3977.053676260697	1
0	12318	3977.134109301978	0
0	12339	3983.324712039737	1
0	12344	3988.806102424536	0
0	12363	3992.521507867773	1
0	12365	3994.121175595084	2
0	12367	3996.771839455572	3
0	12371	3997.58042076392	4
0	12372	3999.077255530386	3
0	12379	3999.927356194371	2
0	12385	4000.531880265271	1
0	12393	4003.51550160341	0
0	12400	4005.810218751115	1
0	12401	4005.961723015859	0
0	12422	4010.060968836758	1
0	12423	4011.532361281803	0
0	12430	4014.471090370613	1
0	12432	4014.500702393875	2
0	12433	4014.642389011587	1
0	12439	4015.683105769775	2
0	12441	4015.80556066364	1
0	12449	4020.56387233153	0
0	12470	4027.907068957204	1
0	12471	4029.340819363755	0
0	12477	4030.201196691417	1
0	12479	4031.928130694548	0
0	12485	4033.840559624133	1
0	12487	4037.092214665342	0
0	12498	4038.108244992812	1
0	12501	4039.623350369149	0
0	12515	4041.786444073472	1
0	12517	4044.941256540332	2
0	12519	4046.660550468984	3
0	12522	4050.032695020827	2
0	12530	4053.122745596233	1
0	12535	4053.429316762574	0
0	12545	4054.569706426592	1
0	12546	4054.983398881661	0
0	12555	4059.283363678351	1
0	12559	4062.187557922296	0
0	12590	4070.889158893685	1
0	12592	4072.849512610715	2
0	12594	4073.053056918365	3
0	12595	4073.412890474792	2
0	12602	4074.508217728845	3
0	12603	4075.192948811037	2
0	12609	4075.741378357698	3
0	12615	4079.040166502292	2
0	12622	4082.706677788291	1
0	12628	4083.277191583652	0
0	12636	4085.606146366301	1
0	12637	4086.54690536316	0
0	12646	4089.222584348009	1
0	12649	4090.969795046604	0
0	12661	4094.3773333002	1
0	12662	4095.872465112231	0
0	12668	4096.026616417307	1
0	12670	4097.310104079619	2
0	12673	4097.749051914002	1
0	12683	4100.543049702927	0
0	12697	4103.918943736075	1
0	12700	4103.999454527378	0
0	12707	4107.817792590995	1
0	12708	4112.543308940341	0
0	12720	4117.126561780385	1
0	12721	4120.726313401097	0
0	12733	4121.875038265797	1
0	12738	4123.269300036328	2
0	12741	4133.889859392885	1
0	12747	4134.306272801312	2
0	12748	4134.348747959857	1
0	12755	4135.02146165052	2
0	12757	4135.751603531671	3
0	12759	4137.47168632328	4
0	12761	4138.243869426996	3
0	12766	4138.95828072456	2
0	12771	4140.697861799426	1
0	12779	4143.680095653425	2
0	12780	4143.767889525169	1
0	12786	4143.840747009563	0
0	12793	4145.000552062215	1
0	12795	4147.200287894443	0
0	12806	4147.292005601	1
0	12810	4149.699179677034	0
0	12834	4154.263466019155	1
0	12836	4154.566595069856	2
0	12840	4156.232744639336	3
0	12841	4156.344773497293	2
0	12846	4157.639897389584	1
0	12853	4158.706751344398	2
0	12855	4159.06549900431	3
0	12858	4160.565830012337	4
0	12866	4164.894410113975	3
0	12873	4167.759324868751	2
0	12879	4167.78885727104	3
0	12880	4170.718841750564	2
0	12887	4171.207252983515	3
0	12892	4177.490224493932	2
0	12897	4177.526746595918	1
0	12904	4179.34654771883	2
0	12906	4179.984912840261	3
0	12908	4180.804387807534	4
0	12914	4183.477508479585	3
0	12920	4183.760784553756	4
0	12921	4183.79860424459	3
0	12927	4184.174266202361	2
0	12932	4184.689000161496	1
0	12938	4185.947970207137	0
0	12944	4186.199699550188	1
0	12946	4186.613569777468	2
0	12949	4189.810113085206	3
0	12951	4190.949209523459	2
0	12957	4192.735569166737	3
0	12958	4193.573669756237	2
0	12965	4194.435354351908	3
0	12968	4195.654336501387	2
0	12973	4195.998636299755	1
0	12986	4202.186729061341	2
0	12994	4204.666198480997	1
0	13005	4206.936122741445	0
0	13023	4211.911459492184	1
0	13026	4213.233248447818	0
0	13065	4220.358561907867	1
0	13069	4223.56510513016	2
0	13072	4224.700788064917	1
0	13077	4224.985205130234	0
0	13085	4225.697801248514	1
0	13087	4227.098786817874	2
0	13092	4227.534627181026	3
0	13093	4228.615667415678	2
0	13098	4228.780155978643	1
0	13105	4231.0885302294	0
0	13134	4241.057951364364	1
0	13136	4242.584157096194	2
0	13143	4246.230923458332	1
0	13149	4250.696363034518	0
0	13156	4251.755806157679	1
0	13160	4259.073644992825	2
0	13166	4263.69422785504	3
0	13170	4268.37550902768	4
0	13171	4269.034439513529	3
0	13178	4270.47087773243	4
0	13179	4271.592992810811	3
0	13185	4272.375330949269	2
0	13192	4274.187825213768	1
0	13197	4274.424377481449	0
0	13205	4274.746757648268	1
0	13207	4275.674462210913	0
0	13222	4279.57803376564	1
0	13224	4280.985669618328	2
0	13229	4286.397210913323	3
0	13230	4288.411058922199	2
0	13235	4289.407838422036	1
0	13241	4289.413308957655	2
0	13247	4291.818732873866	1
0	13252	4292.263190830347	0
0	13285	4300.799920579353	1
0	13289	4301.415717626057	2
0	13299	4307.059955223746	3
0	13301	4307.198806286932	4
0	13303	4310.108510772631	5
0	13307	4311.771305349664	6
0	13309	4312.724921561212	7
0	13310	4314.141570303281	6
0	13316	4316.183360466848	7
0	13323	4319.382906731706	8
0	13324	4320.089799474894	7
0	13329	4320.32743758848	6
0	13338	4324.089021347278	5
0	13346	4327.072188140869	4
0	13355	4329.246790796625	5
0	13357	4331.140622750954	6
0	13358	4331.489322639748	5
0	13365	4333.633616334285	6
0	13372	4336.760637966469	7
0	13374	4339.149482548221	8
0	13376	4340.565193023249	9
0	13377	4341.289351202704	8
0	13383	4342.917345009919	7
0	13389	4343.97881323063	8
0	13390	4344.145453851098	7
0	13395	4344.275455578043	6
0	13405	4347.629721681527	5
0	13413	4351.244604856251	6
0	13415	4352.343102859805	5
0	13421	4353.308623232074	6
0	13425	4355.628790715433	5
0	13432	4356.303661081278	6
0	13433	4356.41470221669	5
0	13440	4357.736665112728	4
0	13446	4358.513040987888	3
0	13451	4358.824385450285	2
0	13456	4358.864111416925	1
0	13461	4359.398311856224	0
0	13476	4362.276070511058	1
0	13478	4362.529426806741	2
0	13481	4366.345963170191	1
0	13487	4368.142416438912	0
0	13540	4385.020746206524	1
0	13544	4385.279101415116	2
0	13549	4390.001267894533	1
0	13559	4396.272517264355	0
0	13571	4398.205737679921	1
0	13573	4399.862199570503	2
0	13579	4400.863717689668	3
0	13580	4402.000266315977	2
0	13589	4403.240922505079	3
0	13590	4403.498448949943	2
0	13596	4404.48348728856	1
0	13607	4408.074547722048	0
0	13641	4418.787225711828	1
0	13642	4419.039671128729	0
0	13648	4419.564417876989	1
0	13652	4421.626534659217	0
0	13659	4422.610212545321	1
0	13661	4423.66873300046	2
0	13663	4426.684688544697	3
0	13665	4427.31247311971	4
0	13668	4431.148237088551	3
0	13677	4433.345707771706	4
0	13684	4435.435110225431	5
0	13685	4437.003453929311	4
0	13692	4439.499013710442	5
0	13693	4442.466742646192	4
0	13698	4442.473191312583	3
0	13704	4442.854706722954	4
0	13705	4442.914665455134	3
0	13711	4443.712986850433	4
0	13713	4444.186572096738	5
0	13717	4448.198555542591	4
0	13723	4449.325169324515	3
0	13730	4454.325978154422	2
0	13735	4454.578110327334	1
0	13742	4455.687092968084	0
0	13754	4456.744175491348	1
0	13756	4458.991899495061	2
0	13760	4462.682738038832	1
0	13767	4465.481902245163	0
0	13776	4466.92560297556	1
0	13787	4475.967702747936	0
0	13794	4479.753890909321	1
0	13795	4480.089593900483	0
0	13801	4480.118303081234	1
0	13807	4480.752440051164	0
0	13831	4484.73063043	1
0	13837	4491.735277055333	0
0	13845	4491.963798719496	1
0	13847	4493.512926097511	2
0	13848	4495.227549578486	1
0	13856	4496.286473423439	0
0	13878	4505.100583391461	1
0	13882	4506.340398103547	2
0	13883	4507.999650219306	1
0	13889	4508.490213478728	2
0	13890	4508.637222130625	1
0	13896	4509.513054017272	0
0	13911	4518.132040635104	1
0	13912	4519.088270532548	0
0	13918	4520.2015054109	1
0	13921	4520.601859906033	2
0	13923	4521.331802532923	3
0	13926	4523.57199252909	2
0	13933	4525.739098460659	3
0	13934	4528.166217552332	2
0	13941	4528.808025287284	3
0	13942	4528.85131660961	2
0	13947	4529.390414742507	1
0	13956	4531.535836209531	0
0	13968	4534.058537184601	1
0	13973	4535.651267234983	0
0	13987	4536.673259211296	1
0	13992	4538.506222553922	2
0	13993	4539.112354791988	1
0	13998	4539.149486368662	0
0	14013	4544.850331228136	1
0	14020	4548.288644673141	0
0	14036	4552.089554751047	1
0	14040	4552.547470985904	2
0	14041	4553.309436391489	1
0	14046	4553.477739162013	0
0	14057	4556.405029068214	1
0	14063	4558.694320666625	0
0	14070	4560.191703653303	1
0	14073	4561.174714761776	0
0	14090	4566.640302584017	1
0	14091	4567.541802219959	0
0	14115	4571.984942859397	1
0	14120	4576.317985980831	0
0	14126	4577.527815140192	1
0	14128	4578.417111087731	2
0	14132	4580.842695272849	1
0	14139	4581.290846773503	2
0	14140	4584.848272346766	1
0	14146	4585.060370399602	2
0	14149	4587.034931440484	3
0	14155	4589.627155581153	2
0	14160	4590.10126784599	1
0	14165	4590.82826322645	0
0	14172	4591.589634127241	1
0	14176	4596.335173735247	2
0	14178	4598.239595785433	1
0	14184	4598.285981672757	2
0	14185	4598.358920329701	1
0	14191	4598.821059289518	0
0	14205	4600.298156231054	1
0	14208	4600.426543392443	0
0	14214	4600.870334998267	1
0	14219	4603.543440206291	2
0	14220	4603.744701802171	1
0	14227	4605.732638156808	2
0	14230	4608.414463852534	1
0	14238	4609.413271812964	0
0	14257	4616.030735546129	1
0	14261	4617.589288840451	0
0	14273	4618.991756481643	1
0	14274	4621.7348758679	0
0	14294	4623.790388028393	1
0	14299	4631.474194169223	0
0	14354	4656.608509631815	1
0	14355	4657.908445180657	0
0	14364	4659.78705226431	1
0	14366	4660.253597311788	2
0	14370	4661.657434165496	3
0	14374	4661.988498809655	2
0	14381	4665.415797555953	3
0	14382	4666.831983793481	2
0	14387	4666.942992107765	1
0	14394	4668.127807517617	0
0	14410	4672.755638524696	1
0	14411	4672.929519661604	0
0	14432	4677.004019792827	1
0	14434	4677.189924046993	2
0	14441	4683.305228352517	1
0	14449	4685.758259705955	0
0	14464	4688.856614346962	1
0	14470	4690.639774735921	2
0	14472	4692.148728190018	3
0	14473	4694.152941407532	2
0	14478	4694.780004827784	1
0	14491	4698.187359419525	2
0	14494	4700.065181229737	3
0	14495	4700.513196309541	2
0	14501	4701.182966943923	1
0	14507	4701.295913732123	0
0	14531	4706.031958727874	1
0	14533	4710.183705919841	2
0	14534	4710.703864755803	1
0	14542	4713.477593158426	0
0	14565	4722.663854851962	1
0	14569	4725.642524034588	2
0	14571	4727.601428578824	3
0	14572	4727.938239425721	2
0	14579	4729.003431141712	1
0	14585	4731.208560706565	0
0	14591	4731.888477050612	1
0	14594	4732.562717718785	2
0	14595	4732.740250122224	1
0	14602	4735.722763384314	0
0	14615	4738.294093055279	1
0	14616	4740.249149651869	0
0	14639	4747.686580307604	1
0	14642	4749.002401299504	0
0	14657	4755.975388517064	1
0	14659	4756.840669645293	2
0	14661	4757.296788355425	3
0	14665	4758.347230695661	4
0	14667	4758.594536899299	5
0	14670	4761.777279678515	6
0	14673	4764.396934614609	5
0	14683	4766.630854077166	4
0	14689	4770.321243931996	3
0	14694	4770.955973635745	2
0	14700	4772.234463515604	1
0	14705	4772.303968887494	0
0	14719	4776.655214434153	1
0	14721	4778.36951996676	2
0	14723	4778.425641176149	3
0	14724	4780.842087627843	2
0	14730	4782.768999519007	1
0	14736	4782.79524187344	2
0	14737	4782.911500555492	1
0	14742	4783.628103171065	0
0	14750	4785.210133341224	1
0	14752	4786.262250874393	2
0	14754	4786.278201518538	3
0	14756	4786.323956797399	4
0	14762	4790.695663104986	3
0	14768	4791.646748672224	4
0	14770	4792.744619395854	5
0	14772	4793.345807188565	4
0	14780	4795.168735100972	5
0	14781	4795.698249529394	4
0	14787	4798.091470126173	3
0	14800	4800.820290029923	2
0	14810	4803.499738704005	3
0	14811	4803.588406500167	2
0	14819	4804.6490682193	3
0	14820	4804.961727204038	2
0	14829	4806.139608350506	3
0	14831	4806.738195800266	2
0	14837	4808.115604445365	1
0	14846	4811.812950701618	0
0	14864	4819.788139410854	1
0	14868	4822.415794378624	2
0	14869	4822.707733048308	1
0	14875	4822.782907347269	2
0	14877	4825.340988938861	1
0	14883	4826.210659610996	2
0	14888	4829.296400999397	3
0	14889	4830.250630511266	2
0	14895	4831.332814322465	1
0	14902	4833.49727046802	2
0	14906	4834.518890488679	3
0	14907	4835.204798716624	2
0	14913	4835.331821415413	3
0	14914	4836.007501480242	2
0	14919	4837.071016101173	1
0	14926	4838.792854358511	0
0	14962	4850.078084828281	1
0	14965	4852.964173313815	2
0	14966	4853.064957254774	1
0	14974	4857.523704089082	2
0	14975	4857.919365703106	1
0	14981	4859.871085140383	0
0	14995	4865.406192127353	1
0	14997	4865.623827549345	2
0	15001	4867.439057767152	3
0	15003	4871.905800468618	4
0	15005	4872.114016280265	5
0	15006	4874.961930821097	4
0	15013	4875.032854811061	3
0	15019	4875.882120051138	4
0	15022	4876.798067566362	3
0	15030	4878.043805656299	2
0	15035	4878.414281762738	1
0	15047	4882.280564502477	0
0	15056	4885.208472479768	1
0	15059	4886.293180023186	0
0	15081	4892.921948816893	1
0	15088	4904.868786521396	0
0	15104	4910.952337343583	1
0	15108	4912.593069925894	2
0	15109	4912.670163791472	1
0	15114	4913.810011283654	0
0	15156	4926.64739546518	1
0	15157	4928.44626542394	0
0	15177	4934.964800064114	1
0	15179	4935.094427541655	2
0	15181	4935.247257181999	3
0	15184	4936.618657073789	2
0	15191	4938.341402137398	1
0	15197	4938.8097972033	0
0	15214	4943.520197266186	1
0	15216	4946.40764848107	2
0	15217	4947.487635673473	1
0	15222	4947.793548732655	0
0	15240	4950.168528321151	1
0	15241	4952.420094171466	0
0	15251	4958.309525826312	1
0	15255	4961.440512779635	2
0	15256	4961.646134464022	1
0	15266	4962.256920425642	0
0	15290	4969.371525253717	1
0	15292	4970.612327462569	2
0	15295	4971.819332991058	1
0	15302	4972.234860411601	2
0	15304	4972.765117472068	1
0	15312	4975.019030763184	2
0	15313	4975.906771343706	1
0	15318	4976.973679919889	0
0	15325	4977.147727419373	1
0	15334	4978.952757308345	2
0	15338	4983.773301646894	3
0	15339	4984.091334422504	2
0	15345	4985.643149874805	1
0	15350	4986.097843193791	0
0	15368	4991.508269374151	1
0	15373	4992.713961090752	0
0	15379	4993.574752226672	1
0	15383	4995.288772000971	0
0	15390	4999.135905349302	1
0	15391	4999.162431399749	0
0	15403	5003.204926650625	1
0	15404	5003.867463548944	0
0	15416	5009.052304020838	1
0	15420	5011.290603981418	2
0	15422	5012.62169545206	3
0	15424	5012.98832469394	4
0	15425	5013.411820795603	3
0	15430	5015.903190687584	2
0	15439	5018.561624594054	1
0	15447	5021.467155517959	0
0	15474	5030.79444106105	1
0	15477	5031.659297117393	0
0	15489	5040.455370143189	1
0	15492	5041.107748916812	0
0	15506	5046.781091547513	1
0	15509	5047.85128311149	0
0	15519	5052.903934535533	1
0	15523	5056.095857417511	0
0	15543	5061.354731414347	1
0	15548	5067.038178705457	0
0	15554	5067.105002091662	1
0	15557	5068.811872581048	2
0	15559	5068.857559242525	3
0	15561	5069.620844215399	4
0	15562	5071.01717499888	3
0	15569	5073.420967443125	4
0	15571	5075.87975681294	5
0	15573	5076.702385178128	6
0	15574	5077.884367432608	5
0	15580	5078.024528659384	6
0	15583	5080.530970730457	7
0	15584	5080.542820597907	6
0	15591	5082.23962259256	7
0	15595	5084.653457899044	8
0	15596	5085.984956117826	7
0	15602	5089.753855135964	6
0	15611	5092.042397477499	5
0	15618	5095.51130746585	6
0	15619	5095.621867335531	5
0	15625	5096.299013974692	4
0	15630	5096.543868972893	3
0	15635	5096.630454267531	2
0	15644	5097.224440752036	1
0	15650	5097.559599034593	2
0	15652	5097.77655719573	1
0	15659	5100.382683494452	2
0	15663	5103.430344308736	3
0	15665	5105.572878303799	4
0	15666	5106.362987735113	3
0	15671	5107.577307359258	2
0	15678	5109.288493431746	3
0	15680	5114.991392968705	2
0	15686	5117.249796229348	1
0	15691	5117.535856891523	0
0	15702	5117.597607967085	1
0	15705	5117.987741028502	0
0	15719	5119.350463722165	1
0	15724	5121.637887743857	2
0	15730	5124.918914452215	3
0	15731	5125.53021214981	2
0	15740	5127.23294330419	1
0	15746	5127.893220625997	2
0	15747	5127.89717407772	1
0	15752	5128.601519285602	0
0	15758	5130.053921532711	1
0	15759	5130.367232450503	0
0	15765	5133.700715204559	1
0	15769	5137.958291622113	2
0	15770	5138.559732953697	1
0	15777	5139.766831473791	0
0	15803	5144.7393390158	1
0	15804	5144.770707903861	0
0	15818	5145.992841079897	1
0	15821	5146.794316575356	0
0	15835	5149.838929199271	1
0	15838	5152.549041248532	0
0	15853	5153.879240638032	1
0	15856	5157.438327981679	2
0	15860	5159.350147017997	3
0	15864	5160.128445223603	4
0	15865	5163.27467083662	3
0	15870	5163.663542720262	2
0	15878	5164.524496646612	3
0	15879	5165.337408411786	2
0	15887	5167.549975462691	1
0	15894	5174.248669912184	0
0	15911	5177.487936390557	1
0	15912	5177.576154729277	0
0	15929	5183.065978471082	1
0	15933	5185.927117902966	2
0	15936	5189.850064121444	1
0	15941	5190.947223429703	0
0	15947	5190.955470534233	1
0	15949	5193.773849453026	0
0	15974	5196.546490312157	1
0	15976	5196.653435596507	2
0	15977	5197.676405150566	1
0	15983	5198.909347781695	2
0	15985	5200.36477823548	1
0	15992	5201.55809149554	2
0	15993	5201.651350491934	1
0	15999	5201.91896592891	2
0	16002	5203.288466395124	1
0	16008	5204.516419078351	0
0	16016	5206.095572139984	1
0	16017	5206.150854930803	0
0	16025	5208.873432414516	1
0	16027	5210.081085128764	2
0	16028	5210.496001467238	1
0	16036	5211.133488135248	2
0	16040	5211.815722781604	3
0	16041	5212.313541930187	2
0	16049	5218.221267407729	1
0	16054	5218.342603388952	0
0	16061	5219.407494987168	1
0	16063	5219.508968515019	0
0	16085	5224.468050585504	1
0	16088	5225.675608971936	0
0	16094	5226.189597970451	1
0	16096	5227.902946293077	0
0	16102	5228.931010672969	1
0	16104	5229.029370820734	0
0	16121	5234.009086358066	1
0	16125	5234.904066951201	2
0	16126	5235.301037947648	1
0	16131	5235.738471661055	0
0	16149	5241.188535490141	1
0	16151	5241.577606735833	2
0	16154	5242.087776419164	1
0	16159	5242.196251310418	0
0	16172	5244.765273573357	1
0	16174	5248.318710446858	2
0	16176	5252.845861667613	3
0	16177	5254.847589909127	2
0	16184	5256.888437230097	1
0	16191	5259.975988130461	0
0	16212	5261.757318638492	1
0	16213	5263.606564623091	0
0	16222	5264.51627682979	1
0	16227	5267.075255510358	2
0	16228	5267.465303947039	1
0	16237	5268.285767377534	2
0	16238	5268.376073307309	1
0	16246	5271.494845380249	0
0	16264	5278.007660706127	1
0	16267	5282.128988878242	2
0	16268	5283.326691189715	1
0	16274	5285.663181424851	0
0	16293	5289.661038945979	1
0	16295	5290.98735276386	2
0	16299	5291.540365549068	3
0	16302	5292.747683667134	2
0	16307	5293.285447654123	1
0	16312	5293.564139399955	0
0	16324	5295.39558582967	1
0	16325	5295.724918092462	0
0	16342	5300.828537769758	1
0	16344	5303.182380369697	2
0	16349	5306.553935756089	1
0	16355	5306.643304625668	2
0	16358	5308.134586138569	3
0	16361	5309.770575196461	2
0	16368	5311.601122564043	1
0	16373	5312.009187883423	0
0	16386	5317.037945921562	1
0	16387	5317.363880264446	0
0	16394	5319.008948571636	1
0	16405	5322.669864446071	0
0	16411	5322.803523130787	1
0	16414	5323.486979946271	2
0	16415	5324.341974755633	1
0	16420	5324.596012104171	0
0	16426	5325.35085469828	1
0	16428	5326.052662214106	0
0	16445	5329.560568711414	1
0	16449	5332.607024502637	0
0	16468	5341.475311036142	1
0	16470	5344.15023388952	2
0	16474	5345.529381228661	3
0	16476	5346.401885978101	4
0	16477	5348.403936528776	3
0	16483	5350.019188934161	2
0	16489	5352.844963684744	1
0	16495	5354.824323941552	0
0	16510	5357.026708697493	1
0	16511	5357.565228727349	0
0	16527	5360.8417973924	1
0	16532	5363.30202843212	0
0	16538	5363.535526963167	1
0	16539	5363.72056404402	0
0	16551	5364.95744094486	1
0	16556	5367.020723585028	2
0	16558	5369.630038683207	1
0	16565	5370.670840350084	0
0	16611	5379.270563462473	1
0	16613	5381.167677471346	2
0	16616	5381.639676243533	1
0	16622	5381.662927676517	2
0	16623	5381.665384281959	1
0	16629	5382.324112269361	0
0	16645	5389.993846249165	1
0	16648	5390.941003633447	0
0	16657	5391.712761966103	1
0	16660	5393.03576222298	0
0	16677	5397.804112284576	1
0	16678	5399.993022391152	0
0	16692	5405.773360482738	1
0	16694	5407.732167887309	2
0	16695	5411.201418886619	1
0	16702	5411.520539792264	2
0	16703	5411.914792803616	1
0	16709	5413.377744270597	0
0	16718	5415.411342572014	1
0	16721	5416.700518991044	0
0	16730	5418.023369854754	1
0	16732	5418.590720263579	2
0	16737	5420.240047336991	3
0	16738	5420.296533111832	2
0	16746	5422.380701219592	3
0	16748	5422.395990426375	4
0	16751	5422.604865311019	5
0	16752	5423.584893607737	4
0	16759	5425.919474120257	5
0	16760	5426.825810185477	4
0	16769	5430.811108267108	5
0	16771	5433.111529532141	6
0	16776	5436.042150435847	5
0	16784	5438.116449220272	4
0	16789	5438.714698252772	3
0	16795	5439.829369261144	2
0	16801	5439.973279772302	3
0	16803	5440.228059939666	4
0	16805	5442.457361095382	3
0	16812	5446.34754455204	2
0	16817	5448.458312806497	1
0	16825	5449.674579953092	2
0	16826	5449.886611892344	1
0	16832	5450.944746359248	0
0	16841	5453.529329332023	1
0	16842	5454.839985926544	0
0	16854	5456.449643058485	1
0	16856	5457.493426468729	2
0	16861	5464.476640469526	3
0	16862	5466.127100660536	2
0	16869	5467.086798947935	3
0	16871	5470.061269499687	4
0	16872	5470.19145051666	3
0	16880	5471.918627763132	4
0	16881	5471.938020853597	3
0	16886	5473.205076982381	2
0	16894	5478.833219523738	1
0	16902	5483.043202965478	2
0	16904	5484.448633220227	3
0	16907	5487.022922825693	2
0	16913	5487.811753345164	1
0	16918	5488.130985658449	0
0	16950	5496.625322902833	1
0	16954	5502.421574519565	2
0	16959	5505.764278903941	1
0	16965	5507.555884122246	0
0	16990	5515.859801677497	1
0	16991	5516.0493591647	0
0	17023	5532.59102588623	1
0	17026	5533.705437276492	0
0	17032	5534.904739548218	1
0	17034	5536.002642447713	2
0	17036	5536.736644232266	1
0	17041	5537.018729031865	0
0	17047	5537.43681171904	1
0	17048	5537.447051852806	0
0	17057	5539.120233876581	1
0	17059	5541.216701299513	0
0	17074	5543.415462751397	1
0	17076	5543.509359434752	2
0	17082	5544.902846492744	3
0	17084	5546.0887575933	4
0	17089	5549.423917132229	3
0	17095	5550.007929244357	4
0	17097	5551.227927998753	5
0	17102	5554.313912707278	6
0	17104	5556.380581838178	5
0	17110	5560.173778947958	4
0	17116	5560.797911698643	5
0	17118	5562.009213222188	4
0	17124	5562.624780768094	5
0	17126	5565.356483885952	4
0	17131	5565.876954687922	3
0	17137	5566.283591388591	4
0	17139	5566.725700984648	3
0	17144	5566.981832064922	2
0	17154	5572.705130868106	1
0	17159	5573.031466476186	0
0	17172	5577.584210109495	1
0	17173	5578.608559952283	0
0	17202	5583.742038460573	1
0	17205	5584.102897515499	2
0	17206	5587.52155244771	1
0	17213	5588.496273054285	2
0	17216	5589.425865815019	1
0	17222	5591.80206216108	0
0	17233	5593.813991665758	1
0	17234	5594.744308196126	0
0	17249	5600.366833851875	1
0	17251	5603.125170927799	2
0	17255	5603.854286656122	1
0	17260	5604.315940610823	0
0	17268	5605.265253321613	1
0	17272	5606.71940611576	0
0	17283	5610.811566828024	1
0	17288	5611.7715710611	2
0	17289	5611.894639866558	1
0	17295	5613.294192133749	2
0	17298	5615.013874783226	3
0	17299	5615.09972028437	2
0	17305	5615.822110667351	1
0	17311	5618.794510504143	2
0	17313	5619.669750002367	1
0	17319	5621.353382064826	2
0	17323	5623.303701145213	3
0	17324	5623.676847565941	2
0	17329	5625.06048550842	1
0	17334	5625.395349668302	0
0	17364	5628.369260276834	1
0	17365	5629.573810253802	0
0	17389	5634.316462206392	1
0	17394	5636.135993897156	0
0	17403	5638.028707199339	1
0	17407	5641.441372596026	2
0	17409	5643.20081228691	1
0	17415	5647.31939078807	0
0	17435	5653.532846324466	1
0	17436	5653.955569704419	0
0	17442	5653.997096649029	1
0	17449	5657.110445859481	0
0	17458	5657.84229158806	1
0	17461	5661.349770938824	0
0	17467	5661.586548912714	1
0	17472	5665.688671217247	0
0	17493	5670.312327215889	1
0	17496	5674.342521905057	0
0	17502	5674.507516631114	1
0	17505	5677.256586960596	0
0	17512	5678.797626173887	1
0	17515	5679.284216888874	0
0	17539	5686.864763633181	1
0	17541	5689.292212867747	2
0	17543	5690.578844492371	3
0	17550	5697.367452019149	2
0	17556	5699.101147722485	1
0	17563	5701.963616878915	2
0	17568	5703.704283501944	1
0	17574	5706.09965082026	0
0	17596	5708.881271913344	1
0	17600	5711.711458720377	0
0	17608	5713.662228959524	1
0	17610	5715.257448701738	2
0	17614	5715.485172649118	3
0	17616	5715.818253472168	4
0	17618	5715.862991172501	5
0	17620	5717.695026487345	6
0	17621	5719.126703341104	5
0	17627	5720.392606865965	4
0	17634	5721.220897151764	3
0	17642	5722.779721765104	2
0	17649	5725.138891703073	3
0	17651	5725.6078927934	4
0	17654	5727.838678822413	3
0	17661	5729.015046487918	4
0	17662	5730.075827217455	3
0	17670	5731.940199452209	2
0	17676	5733.891215886472	1
0	17683	5735.815408247021	0
0	17697	5737.330823173902	1
0	17699	5739.272744451557	2
0	17700	5740.261416821404	1
0	17705	5741.45737747036	0
0	17722	5746.379005017251	1
0	17723	5748.509407504931	0
0	17729	5748.999965563193	1
0	17731	5749.539885182738	2
0	17733	5749.641294313544	3
0	17740	5755.501241668359	2
0	17747	5757.551819208113	3
0	17750	5758.518541278826	2
0	17758	5759.487990452244	3
0	17767	5765.716599644139	2
0	17774	5766.625309452141	3
0	17775	5767.514130514529	2
0	17781	5767.64208452652	1
0	17786	5767.806374521356	0
0	17803	5773.248821639783	1
0	17807	5774.176644330542	0
0	17837	5778.368288157784	1
0	17838	5779.968041473395	0
0	17844	5781.23135765018	1
0	17846	5782.375967258186	2
0	17847	5782.641766654747	1
0	17854	5783.563702972176	0
0	17860	5784.04797802194	1
0	17865	5785.139489732442	2
0	17866	5785.950979840928	1
0	17871	5786.42472985904	0
0	17911	5799.679084004507	1
0	17913	5801.192779505294	0
0	17928	5804.187614643849	1
0	17930	5804.558715270334	2
0	17933	5805.613170912548	1
0	17940	5807.323876567382	2
0	17943	5808.861356408112	1
0	17948	5810.91949583465	0
0	17954	5811.102017241252	1
0	17956	5811.410986412412	2
0	17960	5812.517674107749	1
0	17969	5814.823240203552	2
0	17970	5817.485026076565	1
0	17978	5818.444708125289	2
0	17981	5819.513882532001	3
0	17982	5825.227531462859	2
[...]
5	81464	26530.875505874948	5955.1446583987
5	81477	26533.520200969243	5956.4579129846
5	81489	26536.031645873219	5954.5301791107
5	81495	26536.272729924141	5948.509830165
5	81502	26537.305879649674	5936.8061452556
5	81512	26537.49668136832	5926.7470620712
5	81517	26539.285522036322	5928.475763891
5	81535	26552.318203803644	5940.9984430644
5	81592	26567.759907164053	5956.2086083879
5	81691	26585.728914711201	5972.1400043064
5	81737	26608.609912368859	5993.7089439028
5	81744	26608.988110319799	5972.7528744356
5	81749	26609.895021972383	5971.3651930096
5	81754	26610.266733160267	5970.3491329451
5	81759	26610.614427728024	5954.4031996153
5	81770	26617.919794748369	5956.8808858431
5	81787	26619.169476594375	5953.5329362487
5	81796	26624.841356989018	5956.403380017
5	81809	26630.417017222222	5952.7116006541
5	81823	26639.992454708197	5952.4740901849
5	81848	26645.030102577599	5941.8309232766
5	81859	26646.625234828575	5932.9532319468
5	81866	26647.899487296076	5912.3042618351
5	81878	26652.056028208515	5903.2812347699
5	81947	26670.337818145599	5914.0873632385
5	82027	26695.788837501563	5934.8346828892
5	82043	26699.61097250554	5937.8486056989
5	82060	26701.866279585984	5918.6454267475
5	82070	26703.187059471041	5913.0126257803
5	82087	26713.044106507274	5922.0756493873
5	82093	26718.386244430531	5918.2450136543
5	82106	26721.406078918355	5906.2944930493
5	82345	26807.174310272305	5988.4595935138
5	82366	26812.683181367384	5963.2512429863
5	82372	26814.544625018471	5964.4553662094
5	82383	26819.551539928618	5965.960524829
5	82404	26824.677805691009	5968.0146757225
5	82411	26831.382962848851	5969.7961984929
5	82454	26846.980222736002	5970.2052716084
5	82463	26858.138637333776	5970.2993424315
5	82475	26858.936576784077	5966.862435319
5	82530	26875.301935390003	5982.6003134248
5	82540	26876.182678733554	5982.5556268272
5	82547	26878.740068202747	5985.1075379239
5	82555	26881.653840866426	5984.06597493
5	82564	26883.230206089603	5983.673550286
5	82581	26892.219094844589	5984.8018024432
5	82605	26904.42810644467	5986.048413174
5	82621	26905.226251214525	5984.7091907273
5	82628	26908.417066136176	5984.5111720309
5	82644	26914.707879411705	5984.3061924399
5	82654	26916.281286970433	5980.4946925457
5	82659	26917.05490783582	5966.5700332682
5	82666	26918.181966056585	5966.0204575969
5	82673	26923.874548319163	5961.146741336
5	82680	26928.591177356641	5959.7298217111
5	82731	26945.079731274865	5974.5722040823
5	82762	26958.09085731016	5987.5659249481
5	82770	26963.408844351365	5986.1353373744
5	82791	26979.970964307911	5993.8074740691
5	82883	27014.132154951105	6026.475997465
5	82903	27020.159164437355	6029.4457204881
5	82927	27025.420315709537	6028.9972309396
5	82940	27027.977850699864	6029.848553826
5	82945	27029.434349708158	6025.5592136725
5	82954	27030.959613896666	6021.2915509046
5	82963	27035.592552974689	6022.1406432093
5	82970	27043.623409917944	6025.2078595318
5	82980	27049.998643355078	6025.077152986
5	83034	27071.684007379718	6031.4081959748
5	83046	27077.153246462721	6031.4180919011
5	83057	27082.502921647998	6030.1419925068
5	83072	27087.460193531795	6033.1220367027
5	83123	27106.605677661702	6051.0272712569
5	83132	27107.461989714868	6035.5504370539
5	83137	27109.635588079513	6033.5014162214
5	83142	27109.799505646587	6026.9900866073
5	83153	27113.24659901997	6022.4743314664
5	83164	27117.18743230398	6025.4767516305
5	83175	27122.183826466826	6013.2544849412
5	83318	27162.120665335822	6045.0639626349
5	83323	27166.522901942874	6024.3298615004
5	83328	27166.717190159852	6023.4882096722
5	83333	27167.38573245927	6023.4394088348
5	83346	27176.803578369339	6029.9211627336
5	83443	27210.590794707463	6047.7081861864
5	83452	27213.281221829397	6046.7501801819
5	83476	27222.633469088638	6054.6268449358
5	83509	27233.616604593174	6049.8589244217
5	83522	27236.428213746995	6045.915174612
5	83529	27236.58804460107	6045.2073228001
5	83541	27237.056095126094	6031.3798763143
5	83546	27237.787970057863	6029.5998057386
5	83556	27243.030852532497	6032.352741045
5	83562	27244.992930310895	6019.7140135934
5	83567	27245.936502494339	6016.3676666392
5	83572	27248.299388210672	6018.1951568665
5	83580	27250.923881503996	6015.1937137803
5	83591	27252.355589118295	6016.4442174306
5	83600	27255.208362588781	6017.8593667404
5	83746	27298.221677108799	6060.5774273417
5	83757	27301.969536951423	6061.0335153913
5	83770	27306.518543440102	6062.4016667894
5	83788	27312.553965695778	6065.0550267439
5	83814	27326.158915821729	6072.6942251015
5	83820	27327.746221878186	6073.8067889697
5	83829	27329.208747584863	6073.6838991177
5	83850	27335.604735905087	6076.6415879785
5	83990	27376.233233571405	6113.0987912448
5	84061	27393.488677389234	6128.0916296319
5	84067	27395.012820238428	6124.591122024
5	84072	27395.122462485318	6122.8398513549
5	84078	27395.893871908281	6120.8019835613
5	84084	27397.881629084401	6118.4207587948
5	84089	27399.292883253217	6114.3269412979
5	84098	27406.482537606078	6109.755050211
5	84108	27409.082424728359	6105.2980113362
5	84118	27418.229464208624	6087.8822869423
5	84124	27420.287556761836	6087.6169258453
5	84133	27421.721730528412	6081.8337787243
5	84146	27426.290876700141	6077.3942643383
5	84167	27442.69837570796	6091.0434143733
5	84246	27472.755773519108	6109.3906296349
5	84265	27476.713292864053	6110.8465596649
5	84276	27480.053822850904	6113.5012389039
5	84306	27485.392153769986	6116.2555318162
5	84319	27491.309425179997	6117.9014422609
5	84394	27515.727014518197	6141.8981564151
5	84405	27520.195757495941	6144.1574400275
5	84507	27542.547490196101	6165.1867152795
5	84512	27542.63961443028	6161.6797388713
5	84517	27543.587869505755	6161.9789115364
5	84522	27543.971292091795	6162.3092646816
5	84529	27544.658628816071	6161.6764545985
5	84540	27547.721021950408	6161.5128269142
5	84555	27551.146822942993	6161.5028531468
5	84687	27594.998969759662	6204.8379582974
5	84864	27660.866769807738	6261.2520269509
5	84871	27662.344878479989	6260.4621060178
5	84878	27666.160915093996	6262.5080665294
5	84889	27677.906327997774	6264.4815479583
5	84920	27682.740177867369	6265.1847128221
5	84963	27692.309533437056	6268.0659831313
5	84968	27692.493266470197	6261.5542905414
5	84976	27698.039824948052	6261.0073915518
5	84988	27698.875562842231	6255.7129698016
5	85063	27724.408163693598	6278.667845419
5	85072	27725.268761107718	6272.6566972852
5	85082	27726.805662091603	6272.8945546596
5	85091	27728.218497507932	6271.0598803083
5	85124	27740.390769684941	6279.0253165473
5	85145	27745.807518551066	6276.1715032758
5	85273	27781.026518682487	6306.1147360689
5	85294	27786.984812176693	6300.4486942221
5	85302	27790.66080202988	6302.3868292436
5	85312	27792.350485448318	6303.0805185564
5	85319	27792.81216076013	6301.5293478715
5	85331	27797.344270389655	6302.9905710429
5	85358	27803.855178235611	6307.2621235992
5	85381	27812.77753138813	6314.7489523999
5	85395	27815.903062317737	6313.101450204
5	85415	27833.348662964469	6315.9809016404
5	85443	27839.351924419141	6309.4985105285
5	85458	27841.981027035668	6306.9716343835
5	85505	27855.658046674633	6320.3496530981
5	85523	27859.04072301834	6310.8629794797
5	85555	27867.144370592566	6313.996628352
5	85563	27868.117732091542	6313.1920366197
5	85579	27871.797046185492	6314.5880274142
5	85664	27896.590920745887	6314.7141084196
5	85673	27900.57166288865	6311.0054274244
5	85690	27908.071611433608	6313.6158796259
5	85707	27915.914890707238	6312.3992502666
5	85761	27936.725200126199	6331.1305600393
5	85772	27945.303946847711	6337.6897973514
5	85796	27951.253922542614	6338.2748152338
5	85810	27959.427391391808	6343.1663902294
5	85844	27967.985430445682	6351.437028982
5	85862	27977.305472963666	6360.5551682658
5	85901	27985.741491067376	6365.4837198005
5	85906	27985.763885395922	6361.2675234287
5	85916	27987.752384271388	6343.447768779
5	85925	27990.541113026329	6342.6674467325
5	85941	27993.297003264439	6339.5928922133
5	85955	27998.943078266213	6336.7359467082
5	85970	28002.970692689226	6333.219116455
5	86020	28014.620763764576	6344.8015698306
5	86028	28017.340105226948	6341.427935986
5	86065	28033.798380582421	6350.6649086408
5	86111	28048.566571953551	6358.5797835031
5	86116	28049.062261030018	6356.6770299302
5	86125	28052.547641915721	6357.1266995071
5	86130	28052.832710603979	6356.058839996
5	86139	28054.469386333038	6348.0089802077
5	86162	28058.754026541599	6349.024466935
5	86201	28065.971316683231	6349.7337962096
5	86206	28066.312955400732	6349.1731349051
5	86211	28066.452368222805	6339.7065519768
5	86218	28068.190927352281	6338.0020167641
5	86224	28069.181996812608	6323.4353124533
5	86230	28071.41317333571	6320.7572810715
5	86241	28073.558925428483	6313.1398384675
5	86256	28078.421389853044	6315.1349510145
5	86274	28083.226599483061	6317.4461793308
5	86285	28084.896657785408	6318.5086425594
5	86293	28088.149177058549	6309.8030626287
5	86298	28091.955053606255	6310.1065531591
5	86313	28097.301080266088	6312.9621504273
5	86396	28127.032730873436	6342.3114684496
5	86416	28131.624002814181	6341.0351937483
5	86465	28150.401370945529	6349.1564092306
5	86478	28157.163217750153	6352.4198034208
5	86502	28160.688102936745	6345.7482982641
5	86563	28173.749736054207	6358.5975679264
5	86572	28176.801216133677	6359.984498029
5	86581	28181.782561323582	6359.537487495
5	86586	28184.744517242672	6360.7996093997
5	86593	28186.991585315792	6351.6559008507
5	86598	28188.088524824921	6344.9297320558
5	86607	28189.521409203855	6345.9997688778
5	86620	28192.781344597179	6347.7666304254
5	86631	28196.485035611487	6351.0339302391
5	86640	28198.837602929187	6351.8357438482
5	86685	28213.526296902926	6338.7020503292
5	86694	28214.767918270072	6339.3778047083
5	86709	28221.986644555082	6335.3694646823
5	86823	28253.503053717714	6361.6205366178
5	86829	28253.835544396244	6357.1016775788
5	86834	28255.298245427505	6357.333162038
5	86857	28263.648110074612	6363.8149874668
5	86912	28276.903341506345	6368.3696698596
5	86917	28278.187805019186	6359.0620422224
5	86922	28279.402477638272	6354.0685849467
5	86928	28284.149367572214	6354.5899251174
5	86934	28285.655931998609	6351.5151775598
5	86942	28287.023057331954	6341.9153570275
5	86953	28293.514370937221	6346.7361242697
5	86962	28296.646678363259	6345.7014158169
5	86969	28303.2145192741	6349.6222470375
5	86981	28306.827591602135	6346.4525827866
5	86988	28315.248952229964	6351.181861438
5	86993	28316.297319291505	6348.6536092919
5	86998	28317.741647945363	6349.3710832969
5	87003	28320.173050091082	6347.6513209836
5	87014	28328.674219396101	6355.4192932608
5	87041	28339.793822589735	6365.5508775862
5	87063	28348.406125060278	6362.1912805268
5	87188	28395.873083857399	6401.5474401134
5	87203	28400.019201242161	6397.9310709202
5	87234	28410.430540562422	6395.9470782712
5	87239	28411.007040982468	6394.598784687
5	87244	28411.53713286258	6394.4955578445
5	87249	28414.150431813301	6379.0594494675
5	87254	28418.471762858322	6382.2975456836
5	87273	28426.763268391841	6385.6859540096
5	87332	28439.080671484717	6396.0887565672
5	87345	28442.938247779773	6398.2863229074
5	87364	28446.65738862646	6384.9519507285
5	87373	28448.273202268505	6381.2268755171
5	87460	28481.268095898763	6410.9760443475
5	87468	28482.567007579408	6408.2101439875
5	87490	28487.906667736137	6405.0957955666
5	87507	28489.947514291542	6400.352843877
5	87532	28494.274147367299	6402.7657181745
5	87541	28496.220120764609	6400.9350800933
5	87553	28497.676754172864	6400.8140436802
5	87562	28498.77917840309	6400.7510036139
5	87576	28501.019768312196	6397.7883635408
5	87581	28501.262478947416	6395.0857007731
5	87592	28508.197301245037	6401.0293422884
5	87613	28518.165611873152	6404.5041149712
5	87624	28526.201287344186	6407.0496589081
5	87832	28593.960403418139	6462.472215025
5	87837	28596.265600765347	6459.735358762
5	87842	28596.39139592943	6458.9495098432
5	87847	28596.582317347098	6445.852447455
5	87853	28598.205146215074	6444.6772656395
5	87858	28601.026800577861	6446.2959467662
5	87870	28604.385744869274	6448.1118713044
5	87885	28609.96912745491	6452.6944599918
5	87901	28615.283345145926	6453.3130782273
5	87931	28625.323693310918	6459.1171837234
5	87938	28632.044037731168	6454.9375517944
5	87963	28640.702290094446	6455.2069181082
5	87973	28643.572829349009	6452.6278219913
5	88000	28648.609673565996	6453.0139149602
5	88005	28649.439912701332	6448.0505386585
5	88016	28654.951187941661	6453.5333662074
5	88044	28660.319075587569	6446.6729851967
5	88057	28662.355966289316	6444.8814114288
5	88064	28663.340918305134	6433.2262360331
5	88077	28667.75219584189	6435.1226158425
5	88084	28671.312489013569	6427.3213398507
5	88095	28673.619712391268	6428.5214060373
5	88102	28673.89486570585	6421.078217136
5	88114	28679.206320807204	6416.1529512434
5	88128	28682.088467477243	6410.2416387818
5	88220	28703.816755053569	6427.1251277379
5	88225	28706.610277152732	6425.3624130309
5	88230	28707.840843711387	6421.3971389545
5	88237	28710.770111506164	6422.7125771772
5	88246	28714.600754202021	6417.5340305709
5	88271	28725.215602138246	6411.9411148478
5	88299	28728.803320000682	6404.8478151243
5	88308	28736.662881969538	6406.0645649483
5	88324	28740.914127705063	6405.9424533819
5	88365	28755.209777401323	6419.3914799034
5	88390	28761.155768298477	6409.2978500211
5	88571	28803.396183400715	6450.1926049676
5	88583	28808.354414748478	6442.9205557055
5	88588	28808.984146676545	6440.9256144854
5	88593	28810.267616155471	6432.3096776681
5	88598	28810.3563249617	6430.4324398743
5	88607	28815.546982516077	6433.9833951285
5	88694	28843.388428310449	6457.2478748426
5	88707	28845.123744282607	6452.0367306474
5	88713	28847.783929530525	6447.8302386086
5	88721	28852.286974680311	6433.609755166
5	88734	28861.668579406249	6440.6626165019
5	88756	28867.118625134779	6443.9510729511
5	88775	28878.914983419037	6453.3424307514
5	88905	28915.950578898345	6479.919300162
5	88910	28915.9724071675	6479.1103506927
5	88917	28917.147027888807	6479.9131851771
5	88924	28918.732138128259	6475.7059567826
5	88950	28927.03799487285	6471.6744562116
5	88955	28927.499134798547	6465.6047018994
5	88965	28932.468611914492	6464.139686994
5	88970	28933.167736452868	6464.0621436429
5	88975	28935.76436597275	6465.2367384947
5	88982	28938.116741521055	6466.2391500823
5	88991	28941.412316659736	6459.48743932
5	89006	28944.39084490189	6460.2086452166
5	89042	28956.233309405657	6467.8591735307
5	89049	28958.677443674847	6469.3977506551
5	89058	28960.958708274251	6442.4380812796
5	89087	28969.784926951584	6449.3288540165
5	89133	28979.261747499847	6458.6968171999
5	89155	28991.841810023869	6461.9110140726
5	89189	29005.662111523933	6474.7792515629
5	89204	29008.178795348833	6474.8399275639
5	89210	29011.780965155108	6474.5365894612
5	89215	29013.031813165892	6463.2984967222
5	89225	29015.394921789202	6452.1266216518
5	89244	29019.26572955041	6454.2595357154
5	89258	29026.603764794874	6456.038852079
5	89428	29075.687459581461	6501.6618180024
5	89435	29079.013981897903	6503.5181534971
5	89462	29084.416019437779	6508.4819001502
5	89546	29114.084345598217	6533.0063435826
5	89570	29120.844636423045	6533.7821234988
5	89580	29121.487322077554	6525.5499001937
5	89585	29121.643248020502	6517.7862389572
5	89595	29123.088698983381	6514.292124077
5	89607	29125.270026263616	6509.6975702759
5	89618	29128.742024653781	6503.1998804328
5	89632	29130.066383913734	6502.9696169582
5	89640	29130.704729766469	6490.0229844177
5	89649	29139.60208381772	6498.4881273942
5	89675	29154.555336348978	6511.8201927926
5	89718	29161.331924762602	6510.869785513
5	89727	29167.94740913134	6510.7255344159
5	89737	29169.079697495509	6510.9641789503
5	89747	29172.816030574162	6493.1898344995
5	89752	29173.73261938606	6478.6863219607
5	89761	29180.443477814482	6477.1813294332
5	89845	29205.743002724695	6500.9575947636
5	89856	29208.410642227709	6499.8337858685
5	89862	29209.881960206541	6496.8127739733
5	89867	29211.108784068662	6497.7893076948
5	89872	29216.029750009645	6499.7124757446
5	89877	29218.331109639921	6501.8193687719
5	89882	29222.005301744738	6499.1307944151
5	89896	29228.208816816693	6505.0157948904
5	89917	29237.10315787778	6513.1200639854
5	89929	29240.2774712397	6507.7850849994
5	89936	29240.985889839005	6507.5299370769
5	89943	29243.266947256383	6498.4621419635
5	89960	29253.834430541748	6501.134623742
5	89984	29257.032919388785	6500.8725008107
5	89990	29257.186518804887	6478.896472577
5	89997	29259.150005457215	6471.8165905981
5	90002	29261.784453282769	6468.3810693734
5	90009	29266.136700461383	6465.9713111094
5	90029	29277.370521581387	6463.0850117015
5	90072	29296.232459966915	6479.28030253
5	90077	29302.864688524358	6479.4355752349
5	90082	29304.153198471979	6480.4230198514
5	90087	29305.172713530044	6475.6970447528
5	90098	29311.153138315056	6472.9918784678
5	90141	29329.008133392782	6486.4262949682
5	90236	29366.081571490645	6521.1502008917
5	90252	29368.642167718701	6519.8712436842
5	90286	29375.873772250256	6526.479734451
5	90343	29388.823261367369	6536.4011017882
5	90464	29416.841596474899	6561.345378152
5	90469	29419.40124692527	6559.2832841746
5	90474	29420.494639594671	6560.3414180615
5	90493	29427.21912386384	6566.0638696601
5	90624	29461.133864036175	6596.8281220836
5	90640	29467.132344083399	6602.781688133
5	90719	29494.55410349486	6629.8566866084
5	90786	29516.53005114477	6636.4874249044
5	90804	29523.379081602596	6635.0571990249
5	90809	29523.585963156653	6632.3313893683
5	90820	29526.657024119518	6634.8208012514
5	90837	29529.61469102836	6629.04593787
5	90844	29531.208726634825	6629.1847163029
5	90854	29533.639828374797	6626.3143601549
5	90884	29544.201493073008	6633.6737672077
5	90910	29550.776618847366	6636.429546105
5	90917	29554.08287925786	6618.449154242
5	90929	29558.518632025839	6610.2730220602
5	90959	29566.892914892845	6614.9699181361
5	90984	29574.945096868647	6622.1204994859
5	90993	29575.838621190967	6619.381639549
5	91013	29583.916077219335	6603.288688602
5	91035	29592.823640114742	6606.104666932
5	91040	29595.640137919943	6579.9252850664
5	91047	29597.414274104533	6564.401858041
5	91078	29607.286834295247	6568.2687275753
5	91111	29621.683309574021	6569.2634516567
5	91174	29639.92509696314	6580.5569287749
5	91184	29641.037368141437	6559.9342866499
5	91212	29648.363876528583	6559.9115142549
5	91223	29649.8027853251	6560.7664198527
5	91233	29654.456547986747	6565.3270491231
5	91243	29654.695562017307	6542.6207680439
5	91250	29656.656876292526	6531.8386881379
5	91263	29659.347291517672	6530.9324620222
5	91270	29662.858405466692	6530.8869854248
5	91289	29671.207033731799	6517.5635292316
5	91324	29681.129304849076	6521.3092215997
5	91330	29682.372343298509	6522.2483850896
5	91335	29682.636622930889	6521.6962452452
5	91346	29686.474580572584	6491.2515569203
5	91358	29689.742641670526	6493.5844871091
5	91368	29690.302055684312	6481.5621886042
5	91382	29696.886434107267	6484.884190888
5	91391	29700.373973816235	6484.2055443693
5	91410	29704.688331964777	6485.0461183598
5	91419	29708.332365138538	6488.5749843952
5	91443	29715.691710529746	6494.6413720719
5	91454	29722.077568475463	6499.5697884567
5	91486	29734.97599982874	6505.4810176189
5	91503	29744.448289784464	6508.390645636
5	91541	29755.276527918809	6518.5283742661
5	91554	29758.958999758613	6521.6552517859
5	91563	29768.089828439858	6510.9204890337
5	91578	29771.955002704557	6512.1290367281
5	91825	29875.217101102018	6606.955131186
5	91835	29876.255995441767	6597.2865828433
5	91843	29877.783190856792	6577.3372168812
5	91854	29884.19101544698	6566.8641330122
5	91867	29889.816454693153	6552.9208685868
5	91886	29900.817104168731	6562.4475214359
5	91904	29906.525242756781	6566.792778544
5	92074	29946.9167013629	6607.1357633483
5	92082	29949.59159150546	6606.6116415748
5	92087	29951.925655456113	6600.145759982
5	92094	29954.283249482003	6601.5968061199
5	92099	29954.608288150892	6601.7867555236
5	92108	29960.628492649585	6603.8396282012
5	92113	29962.068676448324	6600.1164831627
5	92136	29977.758447488321	6606.7981508243
5	92174	29989.500357365845	6615.9267992763
5	92181	29991.946174731095	6609.7221605708

