version 2
run Third-n3-2-20191016-14:53:40-6964
attr configname Third-n3
attr datetime 20191016-14:53:40
attr experiment Third-n3
attr inifile omnetpp.ini
attr iterationvars ""
attr iterationvarsf ""
attr measurement ""
attr network org.omnetpp.queueing.Pizza
attr processid 6964
attr repetition 2
attr replication ""
attr resultdir results
attr runnumber 2
attr seedset 2
param **.PS.maxInventoriedPS 3
param **.U1.interArrivalTime exponential(4s)
param **.U2.interArrivalTime exponential(6s)
param **.PS.serviceTimeForInventoryU1 exponential(1.4s)
param **.PS.serviceTimeForInventoryU2 exponential(1.4s)
param **.PS.serviceTimeDirectU1 exponential(1.8s)
param **.PS.serviceTimeDirectU2 exponential(1.8s)
param **.PS.probabilityProducing 0.8
param **.CS.serviceTimeU1 exponential(2.3s)
param **.CS.serviceTimeU2 exponential(2.3s)

vector 0 Pizza.EntryQueueU1 queueLength:vector ETV
attr interpolationmode sample-hold
attr title "queue length, vector"
vector 1 Pizza.CS queueLength:vector ETV
attr interpolationmode sample-hold
attr title "queue length, vector"
vector 2 Pizza.EntryQueueU2 queueLength:vector ETV
attr interpolationmode sample-hold
attr title "queue length, vector"
vector 3 Pizza.sink lifeTime:vector ETV
attr interpolationmode none
attr title "lifetime of arrived jobs, vector"
attr unit s
vector 4 Pizza.sink lifeTimeU2:vector ETV
attr interpolationmode none
attr title "lifetime of arrived jobs, vector"
attr unit s
0	0	0	0
0	7	2.290767958509	1
0	14	7.309071664081	0
0	34	14.096145449219	1
0	35	14.435605529208	0
0	42	17.631410370912	1
0	43	17.974563302566	0
0	100	35.289451942936	1
0	105	37.893051093051	0
0	111	38.104155330287	1
0	113	38.613147679828	2
0	115	39.32152196151	3
0	116	39.888325305117	2
0	122	39.964849400354	3
0	125	42.814380453754	4
0	134	47.569549188767	3
0	140	48.573391970604	2
0	151	51.626065673282	3
0	154	55.642500999471	2
0	159	56.216907286752	1
0	164	56.869935829383	0
0	171	58.549881591082	1
0	172	61.911471691419	0
0	204	69.883879725613	1
0	211	73.970806723463	0
0	246	86.218315371016	1
0	247	88.260223467494	0
0	253	88.967562690001	1
0	257	90.696063508186	2
0	258	92.287103015652	1
0	266	93.392874203475	0
0	303	108.552755176284	1
0	304	109.803948021292	0
0	318	114.078426311988	1
0	321	118.472557573546	0
0	333	120.663065044254	1
0	337	131.251256158133	2
0	338	133.132203847966	1
0	343	133.226121352821	0
0	349	134.359036967173	1
0	353	135.473232988205	0
0	409	152.677684707104	1
0	411	153.305284194297	2
0	413	153.505694256973	3
0	415	156.321812051136	4
0	417	157.37829016785	5
0	419	159.010732570685	6
0	426	160.878515535297	5
0	434	163.134301462831	6
0	435	163.809197136703	5
0	440	163.882213352964	4
0	448	165.697782133812	3
0	454	166.836873036534	2
0	459	166.99308629819	1
0	465	167.039232348556	2
0	467	168.01323141823	1
0	472	168.084160935981	0
0	476	169.050336515072	1
0	478	170.311119523281	2
0	482	172.576396046366	3
0	485	173.153524164611	2
0	489	173.948762206532	3
0	492	176.18809537634	2
0	504	182.006230536378	1
0	510	185.063740938259	0
0	539	193.254149444746	1
0	540	193.331248903584	0
0	551	197.776292205696	1
0	552	197.818085912754	0
0	558	199.167400703176	1
0	566	200.711234977391	0
0	577	201.748937323015	1
0	579	201.878223879079	2
0	580	202.512028076653	1
0	586	202.775012045205	2
0	589	204.78753006428	1
0	597	207.574092529837	0
0	616	213.184457247856	1
0	619	215.568387032257	0
0	626	217.712118230381	1
0	628	219.397520060945	2
0	630	221.561892749018	1
0	636	222.540799719586	0
0	645	226.169214567821	1
0	646	227.187441435056	0
0	666	234.063136499903	1
0	670	236.168245019441	2
0	671	236.259921440203	1
0	676	236.520692161945	0
0	684	241.81880302601	1
0	688	244.914851196749	0
0	709	246.906204551432	1
0	711	247.550056060569	2
0	715	251.664003461908	3
0	717	251.670171155977	4
0	718	252.749824960881	3
0	724	254.025169409074	2
0	729	254.489153779865	1
0	734	255.180081099344	0
0	746	259.397559837097	1
0	749	261.301527421034	0
0	770	265.145136647643	1
0	772	265.475352169191	2
0	774	266.585421157666	3
0	776	267.472494623985	4
0	778	268.398300244462	5
0	782	270.643890052349	6
0	785	271.676642530787	5
0	790	272.670004882887	4
0	795	273.114130990929	3
0	802	274.312836699457	2
0	809	274.750676583602	3
0	812	276.858575016317	2
0	819	278.520035845173	1
0	826	280.565652094852	0
0	833	283.350877351044	1
0	838	288.642950845007	2
0	839	288.673117774691	1
0	845	288.811433657768	2
0	846	289.4283805681	1
0	851	289.471398427195	0
0	871	296.460718114127	1
0	872	298.711100875693	0
0	878	298.951094680122	1
0	881	299.224032583463	0
0	889	300.159408934213	1
0	890	300.543978373467	0
0	922	309.095597684575	1
0	923	310.65880376308	0
0	930	311.226632913705	1
0	931	311.438883773366	0
0	937	312.274927326862	1
0	938	313.046995211254	0
0	944	313.773048641098	1
0	946	313.993527858523	0
0	983	326.619259001989	1
0	986	328.072894523958	0
0	995	328.618829582641	1
0	1002	331.365323587457	2
0	1004	332.288502759533	3
0	1006	333.94310867556	4
0	1008	336.439178126797	5
0	1009	337.246323392632	4
0	1015	338.038388641179	3
0	1023	338.585205898473	2
0	1029	341.27338283828	1
0	1034	342.131932978734	0
0	1044	346.594643258844	1
0	1053	349.197010923962	0
0	1060	349.318792240628	1
0	1061	351.384227039692	0
0	1067	352.410663498942	1
0	1069	352.988116635794	2
0	1071	354.334840775802	3
0	1075	355.458959837381	4
0	1076	356.732386757731	3
0	1082	358.272250320822	4
0	1085	359.314757937852	3
0	1091	359.39159114851	2
0	1097	359.890671956056	3
0	1098	360.678582089662	2
0	1109	363.490301151658	1
0	1114	364.133476275024	0
0	1137	370.767308013071	1
0	1139	371.762640332189	2
0	1141	372.104346309024	3
0	1142	372.499436753091	2
0	1148	373.690729633923	3
0	1150	374.094834669297	4
0	1151	375.489751361024	3
0	1159	376.5572857833	4
0	1163	377.1594774884	5
0	1164	378.215140809509	4
0	1170	378.399874806358	5
0	1174	379.830072029804	6
0	1177	381.758449539993	5
0	1182	382.0810388159	4
0	1192	383.465511108249	5
0	1194	384.460903790407	6
0	1197	386.881117068253	5
0	1203	388.290518332421	4
0	1209	388.382078760483	5
0	1216	391.247322158753	6
0	1217	391.432323525355	5
0	1227	392.703824896066	6
0	1228	392.956668195814	5
0	1234	393.373081214501	6
0	1235	394.72925777372	5
0	1240	394.942761037272	4
0	1244	395.316767188432	5
0	1248	396.588814293175	6
0	1250	396.86663712423	7
0	1253	398.824010708585	8
0	1255	399.032278233585	9
0	1257	401.996628644466	8
0	1263	402.715117396285	9
0	1266	411.013169561189	8
0	1272	414.101471950778	7
0	1278	415.44472083194	8
0	1280	415.859723688584	9
0	1282	417.623117673461	10
0	1283	417.978399289515	9
0	1288	419.88463347051	8
0	1294	422.05812476392	7
0	1299	422.584451056645	6
0	1304	424.850546640374	5
0	1310	430.858651774774	6
0	1311	432.580659005724	5
0	1322	438.885149944167	6
0	1325	440.276398690707	5
0	1330	440.812672085158	4
0	1338	441.988125156592	3
0	1343	442.287474467282	2
0	1348	443.360296232368	1
0	1352	443.43447116556	2
0	1356	445.71188881488	3
0	1361	446.49496876493	2
0	1367	450.723825518078	1
0	1376	457.209960343855	0
0	1391	460.29020945627	1
0	1393	462.075522375843	2
0	1395	462.748891769403	3
0	1397	462.900063937714	4
0	1399	463.171940418235	5
0	1401	466.858077109086	4
0	1406	467.101905578362	3
0	1412	467.325553908191	4
0	1414	468.415542755847	3
0	1420	468.692064344947	4
0	1422	469.808205384493	5
0	1423	470.356549058899	4
0	1430	471.45126254154	3
0	1437	476.251300231493	2
0	1442	478.113880627079	1
0	1451	480.68890394912	2
0	1452	481.2632840736	1
0	1458	483.324525098181	0
0	1464	483.538505297493	1
0	1466	486.714580377758	0
0	1498	496.711289802088	1
0	1501	497.478109242515	0
0	1507	497.951490465887	1
0	1512	503.377068420337	0
0	1519	505.328781740477	1
0	1525	506.064728494407	2
0	1526	506.789411606637	1
0	1532	511.063938054726	0
0	1538	511.800360150575	1
0	1541	513.77468057461	2
0	1544	514.994159077974	1
0	1551	516.925931278038	2
0	1552	517.908581819562	1
0	1557	520.750637871047	0
0	1580	529.772788629154	1
0	1585	531.747215416443	0
0	1594	533.207175632871	1
0	1595	535.779791009184	0
0	1622	540.820587755596	1
0	1623	541.12546282723	0
0	1635	543.4281927042	1
0	1638	548.58603381917	0
0	1654	550.183639451064	1
0	1655	550.452166026499	0
0	1668	551.257441397139	1
0	1670	551.997690910578	2
0	1671	552.738611396274	1
0	1677	554.331298160207	2
0	1678	554.993981455428	1
0	1685	555.646374448708	2
0	1687	555.835204540843	1
0	1694	556.583278944419	0
0	1701	556.988190539203	1
0	1705	558.611930852068	2
0	1708	559.803387578703	3
0	1711	560.276159753362	2
0	1717	560.837679105423	1
0	1725	562.670039782129	0
0	1732	564.569663293524	1
0	1733	565.070484262168	0
0	1740	565.08810127169	1
0	1746	567.380640474893	2
0	1747	568.383726990415	1
0	1753	568.492724658898	2
0	1755	569.435376675264	3
0	1760	578.804500567592	2
0	1765	579.474800432923	1
0	1772	580.902006632808	0
0	1788	582.974410984365	1
0	1794	587.558080247063	2
0	1795	588.317897968711	1
0	1801	588.839455564717	0
0	1807	589.064822453161	1
0	1808	589.774820297316	0
0	1824	592.51017105563	1
0	1825	593.86645884283	0
0	1831	593.946339610781	1
0	1832	597.672196648449	0
0	1838	598.449737766014	1
0	1840	602.347471105126	2
0	1846	604.836086472199	3
0	1851	608.684659690862	2
0	1857	610.67306338067	1
0	1864	612.497376166372	0
0	1870	613.291042216707	1
0	1872	613.50918899048	2
0	1875	614.747410503679	1
0	1882	616.091700994998	0
0	1917	623.73545198417	1
0	1918	624.467553251092	0
0	1932	626.379090051071	1
0	1936	627.814624471017	2
0	1937	632.027078547966	1
0	1943	632.521871632712	2
0	1944	633.401409029849	1
0	1950	635.448607291189	0
0	1965	637.406387522606	1
0	1966	639.267366602741	0
0	1973	640.605269649808	1
0	1974	640.901746535086	0
0	1994	644.496273193571	1
0	2000	647.030263927479	2
0	2002	648.286982556631	3
0	2005	653.121169903546	2
0	2011	653.561436073245	3
0	2013	654.359135799701	2
0	2023	655.915265066917	3
0	2024	658.501772421867	2
0	2030	659.641349782811	1
0	2038	660.749089068603	2
0	2040	664.910544076093	1
0	2045	665.884477141702	0
0	2073	672.056114032651	1
0	2074	672.210024759432	0
0	2088	676.376180207098	1
0	2090	676.677225372554	2
0	2091	676.881788674604	1
0	2096	676.974399579085	0
0	2106	677.459251736424	1
0	2108	677.936798611546	2
0	2112	680.850523928446	1
0	2117	682.350172397518	0
0	2130	686.276419025129	1
0	2136	689.323992672206	2
0	2140	690.359480745349	3
0	2141	692.200915194094	2
0	2146	692.433389272265	1
0	2151	693.001158060815	0
0	2162	694.382578981629	1
0	2163	694.633309431409	0
0	2189	706.982733040915	1
0	2192	709.640306942785	0
0	2209	716.719168866789	1
0	2215	722.427859749651	2
0	2216	723.135297605198	1
0	2222	723.693727710039	0
0	2234	727.098874225267	1
0	2235	727.648891152086	0
0	2246	729.421093936017	1
0	2247	729.460652595863	0
0	2264	735.891010086968	1
0	2266	739.699532350054	2
0	2267	739.824624780052	1
0	2272	740.094840106822	0
0	2294	751.942605388305	1
0	2296	752.639771550489	2
0	2298	753.006068570148	3
0	2302	753.964362433389	4
0	2303	755.568480233133	3
0	2308	755.728852150425	2
0	2317	765.002903940577	1
0	2323	765.371533877934	2
0	2325	766.425619802366	1
0	2331	767.206575360426	2
0	2333	770.241149387248	3
0	2335	771.977270729895	2
0	2341	773.033775260711	1
0	2346	775.513334668709	0
0	2378	785.90651472757	1
0	2379	786.435681998013	0
0	2390	788.20782013776	1
0	2391	788.716228912898	0
0	2416	795.546775175381	1
0	2421	797.867507462165	2
0	2422	798.335970439272	1
0	2428	799.0077329402	2
0	2433	802.086196298862	3
0	2434	802.522989190565	2
0	2440	802.576866320941	3
0	2442	803.10083275229	2
0	2447	803.887419992314	1
0	2455	805.203599825878	0
0	2465	807.690485224965	1
0	2468	810.320737915545	0
0	2489	815.547228901684	1
0	2490	816.078522453498	0
0	2515	825.792159032125	1
0	2518	828.034255337015	0
0	2524	829.166993930475	1
0	2527	830.461583146995	2
0	2528	831.120702524134	1
0	2537	835.562703990189	2
0	2539	836.467418817793	3
0	2540	839.922234258439	2
0	2546	841.290343159108	1
0	2551	841.314649167597	0
0	2580	845.529384726216	1
0	2581	845.564901692131	0
0	2605	849.667546672271	1
0	2609	851.557472574124	2
0	2612	854.215842584778	1
0	2619	858.369640781502	0
0	2625	858.707840346874	1
0	2628	859.297530392233	2
0	2629	859.880684456571	1
0	2638	860.967922579594	2
0	2642	863.014254248448	3
0	2643	863.144779290367	2
0	2649	864.195575745554	1
0	2656	865.579403708881	2
0	2657	869.444860539843	1
0	2662	869.511785986112	0
0	2680	871.151103908989	1
0	2681	872.08578615524	0
0	2724	887.678314792886	1
0	2725	889.397756542972	0
0	2751	898.120722096806	1
0	2752	900.253087273268	0
0	2765	906.665982483332	1
0	2766	906.670711043007	0
0	2783	915.896034372033	1
0	2784	916.36287642176	0
0	2806	920.818799141047	1
0	2810	921.781382232098	2
0	2811	923.509203771667	1
0	2816	924.246048122988	0
0	2822	925.615413131834	1
0	2823	926.507345038866	0
0	2833	928.711185592836	1
0	2839	934.516327546683	0
0	2853	936.853368299921	1
0	2860	941.070370504261	0
0	2871	946.305411627213	1
0	2877	948.352468442393	2
0	2879	949.232376532465	1
0	2884	949.426379769501	0
0	2895	955.999599630963	1
0	2897	956.562084681552	2
0	2899	957.857310879877	3
0	2905	961.782980274827	4
0	2909	962.603500247912	5
0	2911	963.393799719483	6
0	2914	965.078816623509	5
0	2920	965.445436070514	6
0	2928	971.832107389409	7
0	2931	972.224920793778	6
0	2936	972.614262600874	5
0	2942	973.458092804585	6
0	2944	973.791378836078	7
0	2947	979.326463162513	6
0	2954	979.549187050687	5
0	2962	980.256729368557	6
0	2964	980.566750677121	7
0	2965	981.487172282145	6
0	2971	983.025986607534	5
0	2978	983.465756927718	4
0	2984	983.467621883265	5
0	2985	984.75501723863	4
0	2990	985.808648816829	3
0	2997	989.8399453305	4
0	2999	990.90061618441	5
0	3001	991.822032821815	6
0	3004	993.201579153006	5
0	3009	995.300465748015	4
0	3014	998.427627415281	3
0	3019	999.467445594855	2
0	3024	1002.73248828982	1
0	3030	1006.746785794285	0
0	3044	1010.250833617999	1
0	3045	1010.446892289331	0
0	3053	1012.039250235436	1
0	3055	1014.462943478454	2
0	3056	1014.568262288977	1
0	3063	1016.324284025764	2
0	3069	1017.652970475627	3
0	3071	1020.743628538142	4
0	3072	1020.744093654025	3
0	3077	1020.859755694102	2
0	3082	1023.051189059348	1
0	3089	1024.973828551773	0
0	3095	1025.458517520399	1
0	3096	1025.855759055596	0
0	3102	1027.079835182731	1
0	3103	1027.425167864883	0
0	3107	1028.759024135198	1
0	3114	1032.147991391644	2
0	3116	1033.545214038185	3
0	3117	1036.752935501331	2
0	3123	1036.982957251029	3
0	3125	1039.367402942609	4
0	3128	1042.960848267209	3
0	3140	1046.802872236083	4
0	3141	1047.065909416918	3
0	3146	1047.316301199835	2
0	3152	1047.627760033913	3
0	3153	1047.639613994504	2
0	3161	1050.939085973582	1
0	3166	1051.114442381109	0
0	3179	1055.415885410777	1
0	3180	1055.874750912922	0
0	3202	1058.094665092825	1
0	3203	1058.733628194241	0
0	3223	1064.152448764314	1
0	3226	1065.273580129014	0
0	3238	1066.554114627283	1
0	3241	1069.227383034703	0
0	3269	1082.115151000967	1
0	3275	1082.882523835429	2
0	3277	1083.137652924356	3
0	3279	1084.533067836764	4
0	3283	1085.314020021342	5
0	3286	1092.46654508272	4
0	3291	1092.8166012198	3
0	3296	1092.926926427619	2
0	3302	1093.586012050834	3
0	3304	1093.761836557132	2
0	3310	1095.322558550988	3
0	3312	1097.096507074455	2
0	3318	1098.03940583173	3
0	3320	1100.357070624348	2
0	3327	1101.580241338385	3
0	3333	1103.379355453092	4
0	3335	1103.661832150259	5
0	3337	1103.76318879408	6
0	3339	1106.276000236863	5
0	3346	1107.59496888863	6
0	3347	1107.825677831144	5
0	3352	1108.127804207211	4
0	3363	1112.976851580775	3
0	3370	1114.66800651664	2
0	3377	1119.025449670373	1
0	3383	1119.167994381114	2
0	3384	1124.611714795865	1
0	3390	1129.158095736936	0
0	3396	1129.644595236408	1
0	3398	1132.692667110417	0
0	3426	1138.047382122572	1
0	3427	1138.052539896181	0
0	3440	1141.888182362296	1
0	3441	1142.931195992755	0
0	3455	1149.169173998556	1
0	3456	1152.166725905795	0
0	3478	1165.639988307907	1
0	3485	1167.530204226137	2
0	3488	1169.510556097441	1
0	3494	1169.796184908711	0
0	3502	1172.03098653556	1
0	3503	1172.854985625158	0
0	3527	1178.949200465458	1
0	3529	1179.27626052643	2
0	3532	1183.574961959199	1
0	3540	1184.579528700338	0
0	3550	1187.561991060784	1
0	3556	1191.827248668281	2
0	3558	1194.093321093044	3
0	3559	1196.904900470451	2
0	3564	1196.949926314325	1
0	3572	1197.512626501159	0
0	3578	1199.952114411185	1
0	3582	1201.64426077393	2
0	3584	1202.432484701482	3
0	3586	1202.85524803825	2
0	3593	1206.693860423678	3
0	3597	1208.427523634414	4
0	3599	1208.73704903264	5
0	3602	1210.41670663912	4
0	3609	1213.951819052907	3
0	3618	1215.188704861251	2
0	3625	1215.627858107454	3
0	3626	1216.224449975664	2
0	3632	1216.376423417871	3
0	3634	1220.110712093427	4
0	3635	1220.303275368327	3
0	3641	1221.638175142308	4
0	3642	1222.026525528374	3
0	3650	1224.866780821978	4
0	3653	1225.627699032283	3
0	3661	1228.847898798864	2
0	3666	1230.052133279802	1
0	3671	1230.186807894899	0
0	3681	1233.975650627399	1
0	3682	1234.467594125582	0
0	3701	1239.70016012555	1
0	3702	1239.744397463555	0
0	3709	1244.045252454849	1
0	3713	1249.126437107051	0
0	3731	1256.78313110733	1
0	3735	1260.482093358176	2
0	3736	1261.162812682654	1
0	3744	1266.016726532931	0
0	3760	1274.625439665959	1
0	3761	1275.348478101689	0
0	3769	1276.490145672945	1
0	3771	1276.82010870122	2
0	3773	1277.066673979099	3
0	3775	1277.313177415272	4
0	3777	1278.502988054765	3
0	3785	1282.994909581736	2
0	3792	1285.663868679212	3
0	3793	1288.057322210925	2
0	3798	1293.171791353228	1
0	3803	1293.450734602626	0
0	3814	1295.342424420167	1
0	3815	1295.775175347294	0
0	3826	1296.10605548438	1
0	3829	1298.194946477591	2
0	3831	1299.52441133119	3
0	3832	1300.390216252499	2
0	3838	1301.005283314803	1
0	3843	1302.315669051689	0
0	3882	1320.373945843616	1
0	3888	1323.951712736345	2
0	3889	1324.230735857283	1
0	3896	1328.876255954917	2
0	3898	1334.224197844393	3
0	3899	1336.716116926884	2
0	3907	1340.687346997515	1
0	3915	1345.631336480223	0
0	3922	1347.126200800982	1
0	3924	1348.670133568296	2
0	3925	1353.705581313455	1
0	3935	1355.138343958936	2
0	3936	1360.577345111393	1
0	3941	1364.291895606904	0
0	3984	1378.559607690431	1
0	3986	1378.91727062097	2
0	3989	1379.332172574748	1
0	3994	1380.081871464373	0
0	4002	1382.463860193171	1
0	4003	1385.567374329001	0
0	4009	1386.323459341159	1
0	4012	1387.753400838377	0
0	4021	1391.169133139127	1
0	4024	1393.778248154541	0
0	4041	1396.466365357826	1
0	4048	1400.304202021633	2
0	4049	1401.442230320085	1
0	4054	1401.484971309755	0
0	4087	1408.910410962648	1
0	4088	1410.043354811322	0
0	4097	1411.272407227591	1
0	4101	1412.890866397669	0
0	4110	1414.165166085682	1
0	4111	1414.367938752112	0
0	4118	1416.986105317156	1
0	4120	1417.688685364144	2
0	4121	1418.798870491176	1
0	4126	1418.824265170433	0
0	4135	1419.709786176578	1
0	4138	1420.477030432728	0
0	4149	1423.809062961728	1
0	4150	1424.352603702349	0
0	4161	1425.827348787641	1
0	4164	1427.707086733921	0
0	4180	1429.350943571008	1
0	4182	1430.465854778544	2
0	4186	1431.856518300665	3
0	4189	1434.301114358828	2
0	4197	1436.20121213821	1
0	4202	1437.826857512292	0
0	4208	1437.906668452251	1
0	4212	1438.615294232738	0
0	4218	1440.648481430485	1
0	4221	1446.572156888571	2
0	4225	1449.588351071422	3
0	4229	1450.316126298197	4
0	4230	1450.79224869549	3
0	4237	1452.089937453767	2
0	4242	1452.571956448878	1
0	4248	1455.676928813068	2
0	4250	1456.664424622644	1
0	4256	1456.757694300376	0
0	4276	1460.16125853499	1
0	4282	1463.039970906996	0
0	4298	1464.640929668957	1
0	4301	1465.10733152761	2
0	4303	1465.615910571993	1
0	4308	1466.353422810337	0
0	4314	1469.928259454868	1
0	4315	1470.641925890257	0
0	4321	1470.793722798624	1
0	4324	1471.486818559577	0
0	4332	1471.635522144306	1
0	4334	1473.078638915761	2
0	4339	1473.866811582288	3
0	4340	1474.229158244068	2
0	4345	1476.52665630071	1
0	4350	1476.707586381224	0
0	4354	1481.26840186259	1
0	4357	1482.349547555178	0
0	4396	1494.659392672641	1
0	4399	1499.459256985782	0
0	4408	1499.751386853793	1
0	4415	1502.28981998041	0
0	4434	1504.03105396356	1
0	4435	1505.485609160557	0
0	4445	1509.574709715267	1
0	4446	1509.707939700476	0
0	4458	1511.851446229263	1
0	4460	1512.813277339653	2
0	4462	1514.603599008911	3
0	4465	1516.163492697306	2
0	4475	1519.894457410655	1
0	4480	1521.521531208163	0
0	4486	1522.517817199501	1
0	4487	1523.51280531816	0
0	4493	1524.547784170115	1
0	4495	1524.735214504863	0
0	4512	1530.240358309378	1
0	4515	1532.098400356069	0
0	4524	1534.251129839019	1
0	4525	1534.512958589667	0
0	4532	1535.438578079932	1
0	4534	1537.0907722431	2
0	4537	1539.660932830836	1
0	4543	1540.403226760979	2
0	4547	1540.806283788737	3
0	4550	1543.169619155915	2
0	4556	1543.654342112367	3
0	4559	1543.846284716195	4
0	4561	1544.900245868744	5
0	4564	1548.40313422807	4
0	4569	1548.447459588389	3
0	4574	1548.545597805413	2
0	4579	1548.571079670469	1
0	4586	1550.417020545599	2
0	4587	1550.68206934071	1
0	4593	1551.077748460863	2
0	4594	1551.377130602952	1
0	4600	1551.944999900785	2
0	4601	1551.970963876715	1
0	4606	1552.539761460028	0
0	4617	1555.139876381178	1
0	4618	1555.990134467914	0
0	4622	1556.190417512607	1
0	4626	1558.154731766851	2
0	4628	1559.002781720773	3
0	4630	1560.837758972452	2
0	4635	1560.941585431306	1
0	4642	1563.755283570499	2
0	4643	1563.974241106463	1
0	4648	1564.509116010017	0
0	4670	1571.375653043378	1
0	4673	1573.023078654025	0
0	4688	1575.474595986132	1
0	4690	1575.83525080278	0
0	4696	1576.080308617745	1
0	4698	1576.608294540355	0
0	4718	1582.776873852318	1
0	4720	1585.090997457158	2
0	4721	1585.321992206758	1
0	4729	1586.94571708326	0
0	4739	1589.664252878566	1
0	4744	1592.871221389048	0
0	4773	1601.669794200011	1
0	4777	1604.356026295755	2
0	4778	1605.880043350628	1
0	4783	1606.015796681645	0
0	4794	1607.420973225521	1
0	4798	1608.650897182835	2
0	4800	1608.935199461198	3
0	4801	1609.385931053583	2
0	4806	1610.576269267909	1
0	4812	1613.73652394923	2
0	4813	1614.574705970554	1
0	4819	1616.735441251624	2
0	4821	1617.487952628818	3
0	4825	1619.082798092458	4
0	4826	1619.370392001579	3
0	4830	1619.471125980614	4
0	4835	1622.176663491674	3
0	4843	1624.642411959219	2
0	4850	1624.695459627459	3
0	4855	1633.856785162027	4
0	4856	1634.179775153946	3
0	4862	1635.844295332516	4
0	4864	1637.000451732715	3
0	4869	1638.94494319074	2
0	4874	1638.99877073712	1
0	4879	1643.154461345321	0
0	4883	1643.178905098611	1
0	4889	1644.79093302968	2
0	4892	1645.64685960661	3
0	4893	1646.704366731127	2
0	4901	1651.446785780495	1
0	4907	1653.433329547947	2
0	4909	1653.613630372889	3
0	4910	1653.810432294962	2
0	4916	1654.036369296712	1
0	4924	1656.547292995342	2
0	4927	1659.12957495431	1
0	4933	1659.466256263864	2
0	4936	1659.997410068559	3
0	4939	1664.588212267835	2
0	4945	1665.40244492089	3
0	4947	1666.088461669345	4
0	4948	1666.654416531525	3
0	4954	1666.885529783904	4
0	4957	1667.358229969584	3
0	4968	1674.279422915215	2
0	4974	1674.54333392567	3
0	4976	1675.500951949706	2
0	4981	1676.472082580635	1
0	4988	1676.661948000574	2
0	4990	1677.613949417456	1
0	4996	1678.70726145423	2
0	4997	1679.782834929919	1
0	5004	1680.976834509722	0
0	5042	1691.970253042799	1
0	5044	1692.483100738967	2
0	5046	1693.307283167635	3
0	5050	1694.857251376247	4
0	5056	1696.085977336585	5
0	5059	1698.137278509507	4
0	5065	1699.13461380778	5
0	5067	1699.926286325173	4
0	5075	1701.117284153353	3
0	5083	1701.794109625836	4
0	5085	1702.503718470754	3
0	5090	1703.41341090704	2
0	5097	1707.340915354104	1
0	5106	1708.186886366662	2
0	5107	1708.206945049346	1
0	5112	1709.379324699995	0
0	5118	1709.429789285835	1
0	5119	1710.172969449663	0
0	5132	1715.690235652137	1
0	5133	1716.649105418482	0
0	5168	1730.863939097386	1
0	5169	1732.330281257092	0
0	5176	1733.499502165739	1
0	5179	1735.453001851329	0
0	5197	1744.212459993563	1
0	5198	1745.739997061559	0
0	5205	1746.377299156357	1
0	5207	1747.60771774541	2
0	5208	1747.67230587274	1
0	5216	1749.050346038304	0
0	5224	1750.134724467546	1
0	5230	1755.369713835042	0
0	5254	1761.137402881304	1
0	5257	1765.102772011901	0
0	5264	1767.375261118066	1
0	5266	1769.994541061999	2
0	5267	1770.361839841462	1
0	5272	1771.093349497242	0
0	5281	1772.364448802424	1
0	5288	1775.476391170196	0
0	5295	1776.01280993383	1
0	5297	1777.169346626729	0
0	5314	1780.360738980742	1
0	5315	1781.374453514106	0
0	5335	1788.345688240372	1
0	5336	1789.346933503709	0
0	5347	1791.596674385052	1
0	5349	1791.841232076324	2
0	5350	1791.964466448219	1
0	5356	1792.423164941726	2
0	5358	1792.556924444634	3
0	5360	1793.917215760869	4
0	5363	1797.844228580047	3
0	5369	1799.594976473233	2
0	5374	1800.119642415873	1
0	5385	1804.458869358024	0
0	5400	1806.887730247147	1
0	5403	1811.278212733911	0
0	5424	1823.689179890628	1
0	5426	1824.38921026218	2
0	5428	1826.487461865685	3
0	5429	1826.794875137677	2
0	5436	1828.682496320919	3
0	5437	1829.889704607494	2
0	5442	1830.328113846071	1
0	5449	1832.386552765039	0
0	5477	1843.502340653184	1
0	5479	1843.535088101121	2
0	5481	1843.721540187651	3
0	5483	1845.235613527498	4
0	5486	1848.434678538234	3
0	5492	1850.358995194455	2
0	5498	1851.66282772085	3
0	5499	1851.797267860812	2
0	5507	1853.38226234062	1
0	5516	1856.160469174206	2
0	5518	1856.770869941671	3
0	5519	1858.010454473512	2
0	5526	1858.802519238261	3
0	5527	1859.475167087071	2
0	5533	1859.758340708426	3
0	5535	1861.15971896175	2
0	5542	1863.951754258054	3
0	5545	1865.897248508265	2
0	5550	1866.800185939164	1
0	5560	1873.078080817136	2
0	5563	1874.526046376149	1
0	5568	1874.972468329116	0
0	5589	1877.389678366134	1
0	5590	1878.323984347854	0
0	5598	1880.462545450631	1
0	5600	1881.783426360571	2
0	5601	1882.038119229932	1
0	5607	1883.843770821364	2
0	5611	1884.42392207704	3
0	5615	1885.697711119911	4
0	5617	1887.294446234011	3
0	5625	1890.191256672185	4
0	5628	1893.156819673217	3
0	5634	1894.606536640456	2
0	5639	1896.567754270254	1
0	5647	1899.918976975857	0
0	5664	1903.519544058132	1
0	5666	1904.815813235542	2
0	5669	1910.131242055937	1
0	5677	1910.902553287202	0
0	5683	1910.985452534999	1
0	5685	1911.987480272748	2
0	5690	1912.582823854412	3
0	5693	1913.078265175197	2
0	5699	1915.47070300794	1
0	5704	1916.22982213222	0
0	5719	1918.864372268341	1
0	5722	1919.606087612185	0
0	5731	1921.075899904261	1
0	5733	1921.76205931599	2
0	5736	1925.963877213814	1
0	5741	1926.249332044676	0
0	5759	1929.631614813295	1
0	5760	1932.004077231805	0
0	5780	1935.672966379358	1
0	5782	1935.704806291121	2
0	5789	1937.873932617359	1
0	5794	1938.020162968071	0
0	5800	1938.317116159355	1
0	5801	1938.610285197557	0
0	5807	1939.590167365362	1
0	5816	1944.080764725684	2
0	5818	1944.239520149113	3
0	5820	1945.793753014126	2
0	5829	1947.251520864055	3
0	5831	1947.630009334251	4
0	5833	1948.500027983097	5
0	5834	1949.450223701086	4
0	5839	1950.499778030704	3
0	5845	1951.614312391788	2
0	5851	1952.582768421089	1
0	5856	1952.606981729355	0
0	5878	1957.188209319515	1
0	5879	1957.538821163668	0
0	5908	1967.873069232522	1
0	5910	1968.386035138845	2
0	5911	1969.153874057486	1
0	5917	1969.299011078438	2
0	5919	1969.753935283607	3
0	5923	1969.956606581175	4
0	5925	1971.229860840441	3
0	5931	1971.322753920814	4
0	5932	1971.942499092684	3
0	5940	1973.287273175619	2
0	5946	1974.050100860853	1
0	5951	1974.124515912297	0
0	5955	1974.381481114932	1
0	5960	1975.753232215504	2
0	5962	1976.091898587287	3
0	5963	1976.38459687801	2
0	5968	1976.5718651594	1
0	5975	1978.001465668954	0
0	5994	1984.369920897261	1
0	5996	1987.59354448374	0
0	6016	1995.653342529284	1
0	6018	1995.700904854759	2
0	6022	1996.682084054657	3
0	6023	1996.821919920569	2
0	6030	1997.174742257209	3
0	6031	1997.236600308743	2
0	6039	2000.242201583451	1
0	6047	2000.687481735318	2
0	6048	2000.72375731389	1
0	6053	2001.659006531174	0
0	6057	2002.549282999859	1
0	6063	2007.007725685688	0
0	6087	2010.154791932556	1
0	6090	2013.828302494981	0
0	6099	2014.26386330278	1
0	6101	2014.6121548507	2
0	6105	2016.254696513521	1
0	6114	2020.723342065154	2
0	6117	2022.625375505434	1
0	6123	2022.978353158707	0
0	6140	2032.215367288911	1
0	6142	2034.221967655285	2
0	6144	2034.948818915698	3
0	6149	2039.97048715482	2
0	6155	2040.194379918141	3
0	6156	2040.548787997006	2
0	6162	2040.880037244349	3
0	6164	2041.137251268382	2
0	6169	2041.493510037393	1
0	6175	2046.070542752266	0
0	6188	2051.989060111837	1
0	6193	2053.944462549158	2
0	6195	2054.245431154196	3
0	6196	2056.260043998346	2
0	6202	2056.40700720124	3
0	6204	2057.37632247061	2
0	6209	2057.906971542796	1
0	6216	2058.89798989519	0
0	6241	2063.553536113561	1
0	6242	2064.152018274308	0
0	6249	2064.544845945172	1
0	6251	2065.192261815649	2
0	6252	2065.450448573391	1
0	6257	2065.811982424845	0
0	6263	2066.34300090012	1
0	6269	2071.529680102054	2
0	6271	2071.743161470458	3
0	6272	2073.0887252395	2
0	6277	2074.653724548406	1
0	6284	2077.721274050896	0
0	6308	2083.366217036679	1
0	6312	2085.919717489301	0
0	6327	2088.045138039759	1
0	6329	2088.062478677228	2
0	6331	2089.060141280654	3
0	6334	2090.563567684445	2
0	6340	2091.802983958859	3
0	6342	2092.515029299185	2
0	6350	2096.859688435219	1
0	6359	2098.758464146272	2
0	6360	2099.98799458026	1
0	6367	2101.036073836197	2
0	6370	2103.092919397084	1
0	6376	2103.405930420866	2
0	6379	2105.408433181831	1
0	6387	2105.873731815387	2
0	6400	2109.308098897692	1
0	6407	2110.144295379705	2
0	6408	2112.299164963709	1
0	6414	2112.340847883157	2
0	6416	2112.754318124722	3
0	6418	2113.672885545343	4
0	6419	2113.997539197911	3
0	6430	2117.086730890282	4
0	6431	2117.589902371045	3
0	6437	2120.759347396133	2
0	6444	2120.811200898975	1
0	6450	2121.794326413416	0
0	6458	2122.717162677204	1
0	6460	2123.070342445788	2
0	6462	2123.145225335129	3
0	6463	2123.333461697321	2
0	6469	2125.632623966734	1
0	6474	2129.383087319964	0
0	6500	2139.175104171975	1
0	6503	2140.770170712693	0
0	6529	2147.541395447185	1
0	6530	2148.075826851728	0
0	6551	2157.029218541289	1
0	6552	2157.854577268377	0
0	6564	2160.593002093133	1
0	6565	2160.724641017322	0
0	6571	2160.750877129466	1
0	6572	2161.514545980799	0
0	6584	2163.270459545532	1
0	6586	2164.452304439264	2
0	6590	2168.964909199843	1
0	6596	2169.360616771327	2
0	6597	2169.987196678545	1
0	6605	2174.008394275906	2
0	6607	2174.992152304734	3
0	6608	2175.335098635181	2
0	6614	2175.366902103958	3
0	6616	2176.190797670603	2
0	6621	2176.591223861573	1
0	6627	2177.239861851613	2
0	6628	2178.357575971427	1
0	6633	2178.679870483174	0
0	6637	2179.164478656019	1
0	6639	2179.690579577239	2
0	6643	2181.849543629703	3
0	6645	2183.087852794217	4
0	6650	2187.28393342538	3
0	6656	2187.709283611624	2
0	6663	2189.034067454045	1
0	6670	2189.214893040442	2
0	6672	2189.334409655051	3
0	6673	2190.772312373071	2
0	6682	2197.831350143228	1
0	6690	2198.543045749462	2
0	6692	2201.032259271188	1
0	6697	2202.402770111846	0
0	6716	2206.020376662665	1
0	6719	2208.029920743903	2
0	6720	2208.628919624143	1
0	6725	2208.831128521573	0
0	6751	2219.092759430993	1
0	6759	2221.556581693566	0
0	6784	2238.512280846799	1
0	6786	2242.871159380032	2
0	6789	2243.857668932417	1
0	6794	2244.315719949958	0
0	6805	2246.976047709147	1
0	6808	2247.31133437855	0
0	6821	2250.437325716027	1
0	6825	2251.819438600018	2
0	6829	2254.034882003788	1
0	6835	2256.642535501666	0
0	6841	2258.528993290894	1
0	6847	2263.024406345218	0
0	6872	2266.082570141318	1
0	6876	2267.508364190275	2
0	6878	2268.00670233827	1
0	6885	2269.403009713047	0
0	6895	2276.29881115016	1
0	6904	2286.089483158216	0
0	6916	2287.848569434482	1
0	6922	2292.314740367028	0
0	6933	2292.649573747518	1
0	6935	2292.973493190787	0
0	6947	2294.615747489023	1
0	6948	2297.94857199728	0
0	6989	2306.444868964555	1
0	6990	2306.959955158961	0
0	7007	2311.150423508042	1
0	7008	2311.250422058976	0
0	7014	2311.681976643527	1
0	7015	2312.36276715491	0
0	7024	2315.071707102601	1
0	7028	2316.032984183564	2
0	7033	2318.185345084408	1
0	7039	2319.383515115946	2
0	7041	2320.929320403679	1
0	7046	2321.097503830878	0
0	7060	2324.32250987006	1
0	7063	2327.566104388441	0
0	7073	2328.545820973596	1
0	7076	2328.934851485036	0
0	7103	2340.882999329475	1
0	7104	2341.251651817418	0
0	7130	2345.747318899416	1
0	7131	2346.753083646688	0
0	7137	2347.330981877887	1
0	7138	2348.343125067223	0
0	7159	2359.131410043454	1
0	7162	2360.194375813049	0
0	7174	2364.222591445409	1
0	7179	2366.332609260514	2
0	7181	2367.621992286299	3
0	7182	2369.576355166293	2
0	7187	2370.228236948732	1
0	7194	2372.727271207638	0
0	7209	2378.20371522696	1
0	7212	2379.036617191617	0
0	7239	2387.241018582827	1
0	7241	2387.645390025451	2
0	7243	2387.96980490476	3
0	7249	2390.283994213448	4
0	7255	2392.761800080285	5
0	7256	2393.342514670695	4
0	7262	2393.727392040155	5
0	7265	2394.111972829788	4
0	7273	2395.632332760085	5
0	7274	2400.72445590663	4
0	7282	2403.243251066029	5
0	7283	2403.904456711325	4
0	7288	2404.328548895312	3
0	7295	2406.690729052367	2
0	7302	2409.138330504683	1
0	7308	2410.284362252981	0
0	7319	2410.962500644477	1
0	7322	2412.251184669583	2
0	7325	2414.951243244932	3
0	7327	2415.550227947447	4
0	7330	2417.390865089394	3
0	7335	2417.844841277059	2
0	7341	2422.059710769933	1
0	7346	2422.066611747572	0
0	7361	2427.631750890155	1
0	7363	2428.837740783908	0
0	7380	2437.467032702832	1
0	7383	2437.794610307191	0
0	7391	2438.100903045858	1
0	7393	2439.156327743253	0
0	7403	2441.360511535985	1
0	7404	2443.136191243197	0
0	7431	2449.136907863703	1
0	7432	2449.378406054154	0
0	7448	2452.576499675728	1
0	7450	2452.888489093465	2
0	7454	2454.400086092824	1
0	7459	2454.548970981475	0
0	7465	2456.155439956433	1
0	7468	2457.63460463114	2
0	7470	2457.75416407061	3
0	7473	2460.398633489795	4
0	7474	2462.462433193528	3
0	7482	2465.024889624334	2
0	7487	2465.843469209749	1
0	7494	2466.350573867693	0
0	7504	2467.736878918279	1
0	7505	2467.787834527129	0
0	7525	2474.057094657958	1
0	7528	2475.562934791915	0
0	7540	2481.044446660776	1
0	7544	2484.03582959809	0
0	7550	2485.42354397683	1
0	7552	2488.945516886417	2
0	7554	2489.381191791609	3
0	7555	2489.749545405743	2
0	7561	2490.005582677043	1
0	7569	2496.215083993735	2
0	7570	2497.351476031715	1
0	7578	2497.788101609409	2
0	7582	2499.477137613867	1
0	7589	2505.474551047354	0
0	7596	2506.875531612374	1
0	7598	2507.281571419403	2
0	7599	2507.741130203093	1
0	7604	2508.588162707785	0
0	7622	2513.096925803585	1
0	7624	2513.297539266202	2
0	7628	2516.647748130754	3
0	7629	2516.904094302803	2
0	7635	2518.567055700775	1
0	7647	2520.425667878261	0
0	7653	2520.799525732806	1
0	7654	2521.119106486804	0
0	7673	2525.867943746657	1
0	7676	2526.862400416294	0
0	7692	2530.621038888123	1
0	7694	2534.713526653567	0
0	7702	2541.105736745639	1
0	7705	2541.963908208917	0
0	7713	2542.545420107988	1
0	7717	2544.026631267778	2
0	7718	2544.683391018239	1
0	7727	2546.051099256708	2
0	7728	2547.883070311441	1
0	7733	2548.480750986913	0
0	7770	2556.700822934302	1
0	7775	2558.618599915846	0
0	7796	2565.344427654299	1
0	7801	2565.701038889227	0
0	7821	2571.286334523513	1
0	7824	2573.464691388934	0
0	7834	2576.10663358138	1
0	7837	2579.034189765826	0
0	7859	2584.930140426894	1
0	7864	2586.442105494046	0
0	7870	2586.834611210818	1
0	7871	2587.325269394847	0
0	7877	2589.087502962047	1
0	7882	2592.84905410115	0
0	7894	2596.086037094221	1
0	7896	2596.112578348068	2
0	7898	2596.68302647354	3
0	7900	2596.765216893173	4
0	7907	2599.514760590132	5
0	7908	2602.721225903754	4
0	7913	2603.529495430822	3
0	7920	2605.13557772464	4
0	7922	2607.395324529094	3
0	7929	2607.764522662204	4
0	7931	2608.258809504641	5
0	7933	2610.288374623988	4
0	7938	2611.610691424738	3
0	7944	2612.257568331184	2
0	7952	2612.979398413257	3
0	7956	2616.99167762569	2
0	7961	2618.012014380543	1
0	7966	2618.076192348591	0
0	7985	2621.354196976741	1
0	7989	2625.469049319007	2
0	7992	2627.676503393025	1
0	7997	2628.187630929368	0
0	8015	2631.518175354539	1
0	8016	2632.353049840767	0
0	8022	2634.464249468008	1
0	8023	2635.408638990639	0
0	8031	2638.673373109946	1
0	8032	2639.013640446871	0
0	8039	2642.612353266401	1
0	8041	2643.389789991779	2
0	8043	2643.936326490161	3
0	8045	2645.151946110393	4
0	8046	2647.782065909934	3
0	8052	2651.625189975761	2
0	8058	2652.897238534543	1
0	8065	2653.939547039837	2
0	8066	2654.251559458101	1
0	8071	2654.329661289058	0
0	8086	2658.106330940339	1
0	8087	2659.076862185874	0
0	8118	2666.87942376179	1
0	8122	2668.711874905877	0
0	8142	2674.44266582144	1
0	8149	2679.324781415026	0
0	8156	2681.070616132209	1
0	8157	2681.223721682127	0
0	8166	2681.896788507089	1
0	8168	2681.902532740405	2
0	8172	2683.537383918098	3
0	8176	2687.236875974985	2
0	8181	2688.247889088024	1
0	8191	2691.330056702584	2
0	8193	2691.852288715672	3
0	8194	2693.802561790841	2
0	8199	2694.202429710021	1
0	8208	2698.985006991235	0
0	8216	2701.538822057756	1
0	8218	2705.918287366221	2
0	8221	2708.223078031988	1
0	8229	2709.940530974741	0
0	8249	2712.390763778296	1
0	8251	2714.998316060265	2
0	8252	2715.302758324094	1
0	8258	2715.807733108887	0
0	8266	2717.233130806203	1
0	8268	2717.569572215052	0
0	8333	2738.76157762807	1
0	8334	2739.84402181049	0
0	8341	2740.099685998298	1
0	8344	2744.16561441914	0
0	8361	2751.909088260788	1
0	8363	2752.049621755894	2
0	8368	2754.912080294597	1
0	8373	2755.358821107668	0
0	8417	2771.560222971696	1
0	8419	2773.537268812716	2
0	8426	2779.308468731265	1
0	8432	2779.522615254065	2
0	8435	2779.73107602182	3
0	8436	2780.067014955683	2
0	8442	2780.115160524345	3
0	8445	2782.189527217681	2
0	8452	2782.430387092938	3
0	8454	2782.589937422985	4
0	8456	2783.417436265688	5
0	8458	2783.464370744497	6
0	8460	2784.651557226125	7
0	8461	2784.77690469838	6
0	8469	2785.866215885906	7
0	8473	2787.772886042333	8
0	8474	2789.218634742	7
0	8480	2789.824819400415	8
0	8481	2789.951193847263	7
0	8487	2791.670445394564	6
0	8493	2792.98071824085	5
0	8499	2793.229888520633	6
0	8503	2797.453235586481	7
0	8508	2798.61698273023	8
0	8510	2798.774513326701	9
0	8513	2799.264576903984	8
0	8519	2803.051168394632	7
0	8525	2803.149556776204	8
0	8527	2807.089843575235	7
0	8534	2807.630189537576	8
0	8535	2809.567505602824	7
0	8540	2809.82266632444	6
0	8548	2812.493615568709	7
0	8550	2812.730459981334	8
0	8551	2815.915739285757	7
0	8557	2816.155128099131	8
0	8558	2816.673095378197	7
0	8565	2818.099320734375	8
0	8566	2818.684997473565	7
0	8573	2819.805223474679	6
0	8578	2819.908783411638	5
0	8584	2820.408647471883	6
0	8586	2821.265432680943	7
0	8588	2821.537187524795	8
0	8590	2822.560925152808	7
0	8596	2824.695367583732	6
0	8601	2825.230468723153	5
0	8610	2828.986245485235	4
0	8615	2829.284293481988	3
0	8623	2831.076554047868	2
0	8630	2834.428121127015	3
0	8636	2842.315319599219	4
0	8637	2842.488010557057	3
0	8643	2845.249338138944	2
0	8649	2846.545703057787	1
0	8654	2847.33800065297	0
0	8660	2849.209791006562	1
0	8661	2849.210130641176	0
0	8667	2849.312063946039	1
0	8670	2853.445402355572	0
0	8711	2867.675350120073	1
0	8715	2870.896184491359	2
0	8719	2872.891258662085	3
0	8720	2874.383788720691	2
0	8730	2883.77086492967	1
0	8735	2883.876885037067	0
0	8763	2898.320095083076	1
0	8770	2901.311276442956	0
0	8780	2905.032861975812	1
0	8785	2910.298076846045	2
0	8787	2910.44346448207	3
0	8788	2911.062259261417	2
0	8793	2911.272659481587	1
0	8798	2911.570306334143	0
0	8819	2915.025832820198	1
0	8821	2916.111674115282	2
0	8823	2916.304936793989	3
0	8828	2919.177841135783	2
0	8837	2925.717861194881	1
0	8844	2926.979725850281	2
0	8845	2928.864308968436	1
0	8851	2929.799384429381	2
0	8852	2930.990852912746	1
0	8858	2931.134360746767	2
0	8859	2933.108500997661	1
0	8865	2933.15422162988	2
0	8874	2935.405595985052	1
0	8881	2936.030181431352	2
0	8887	2941.469105950911	1
0	8892	2942.582130532632	0
0	8898	2942.995206115081	1
0	8901	2943.455527976083	2
0	8905	2947.354450377192	1
0	8912	2949.047756991124	0
0	8918	2951.12224044296	1
0	8920	2952.773066840755	2
0	8924	2953.930055171396	3
0	8926	2954.998596224077	4
0	8927	2955.003934633267	3
0	8935	2957.627823480267	4
0	8940	2962.09481426389	5
0	8941	2962.312258865458	4
0	8948	2964.180244178642	5
0	8949	2964.989264288253	4
0	8954	2965.019057646047	3
0	8960	2966.011463383423	2
0	8968	2968.095088900431	1
0	8973	2968.687391452572	0
0	8979	2970.546405364988	1
0	8980	2971.337844793532	0
0	9005	2977.302256015263	1
0	9008	2980.667675065666	0
0	9014	2981.289367074247	1
0	9018	2984.393726876309	0
0	9043	2990.891976185335	1
0	9045	2992.059066854906	2
0	9046	2992.465654944115	1
0	9052	2992.839924887031	2
0	9056	2998.26751976968	3
0	9057	2999.141125547898	2
0	9063	2999.269106475463	3
0	9064	2999.470376847304	2
0	9071	3001.078045735793	1
0	9077	3001.959482397885	0
0	9089	3002.623768203796	1
0	9090	3004.372964773984	0
0	9102	3005.721865122313	1
0	9106	3006.849303375624	0
0	9141	3018.689232701378	1
0	9143	3018.957791438339	2
0	9148	3024.252268219035	1
0	9157	3024.580057687918	2
0	9158	3025.217070959529	1
0	9164	3026.02098481372	0
0	9172	3030.152177194483	1
0	9175	3032.527546766313	0
0	9186	3033.35894476118	1
0	9189	3034.361456452956	0
0	9195	3034.67424308118	1
0	9196	3034.890199073504	0
0	9209	3039.632098636397	1
0	9210	3039.73965249322	0
0	9231	3050.998501677449	1
0	9232	3051.829910814173	0
0	9240	3053.346143043057	1
0	9243	3055.340849303185	0
0	9264	3058.632144214762	1
0	9266	3060.49352009889	2
0	9270	3064.764891925359	3
0	9273	3066.006017413251	2
0	9279	3067.872353067446	1
0	9287	3071.417293913278	0
0	9311	3088.349290307446	1
0	9314	3088.698284072814	0
0	9320	3089.247183805351	1
0	9321	3090.587218483802	0
0	9356	3105.630984295339	1
0	9362	3119.763256050354	2
0	9364	3120.270070743563	3
0	9367	3121.510417727175	2
0	9377	3123.86392894164	1
0	9383	3125.142319690265	0
0	9397	3127.994805707642	1
0	9403	3134.061743261569	0
0	9409	3134.685552054857	1
0	9411	3136.36612994692	0
0	9427	3143.382347512082	1
0	9432	3145.627776488054	0
0	9449	3154.926016345951	1
0	9454	3155.830323453814	2
0	9456	3158.071951860951	3
0	9458	3162.286186205018	4
0	9460	3162.792730533597	5
0	9462	3162.925475745012	6
0	9463	3165.497021554748	5
0	9469	3167.164340038609	4
0	9478	3169.49157419722	3
0	9484	3171.987768875156	2
0	9489	3172.808193517703	1
0	9496	3174.059959650041	0
0	9502	3174.119239119641	1
0	9512	3179.996875187138	0
0	9552	3195.129447736539	1
0	9557	3199.758917469358	0
0	9565	3201.868736430159	1
0	9569	3202.105957940816	2
0	9571	3202.417850888464	1
0	9578	3203.143431730216	2
0	9580	3203.282034585094	3
0	9581	3203.294685144414	2
0	9591	3208.277847626741	1
0	9604	3211.555816471156	2
0	9605	3214.522921452431	1
0	9611	3217.908971971155	0
0	9637	3228.534770754984	1
0	9641	3232.57568790639	2
0	9642	3232.675276267096	1
0	9649	3233.869205925106	2
0	9652	3237.313062277781	1
0	9657	3237.574305202264	0
0	9663	3237.968655394443	1
0	9667	3239.727366237307	2
0	9671	3244.488009253941	1
0	9676	3244.652269229568	0
0	9699	3249.984025693058	1
0	9701	3252.554014013917	0
0	9709	3255.298658837329	1
0	9711	3258.000580887058	2
0	9712	3258.59894403286	1
0	9718	3259.951388924672	2
0	9720	3260.337655729589	3
0	9721	3261.214466746633	2
0	9728	3263.596961853793	1
0	9734	3265.605543812815	0
0	9748	3267.199317692203	1
0	9750	3268.1870681723	2
0	9753	3268.2346809943	3
0	9755	3269.496898282096	4
0	9757	3271.7965068344	5
0	9758	3271.865185477004	4
0	9763	3272.346064802005	3
0	9770	3275.303632650502	2
0	9777	3275.80941543522	1
0	9783	3276.187741028753	2
0	9785	3276.91682403831	3
0	9789	3277.095627154485	4
0	9792	3280.38530735192	5
0	9797	3282.353013328461	6
0	9798	3283.394238016523	5
0	9807	3286.960393009283	6
0	9809	3287.844499232351	7
0	9812	3291.525624235204	6
0	9818	3291.752963497383	7
0	9823	3292.095005419308	8
0	9825	3292.124650923902	9
0	9826	3292.168197857515	8
0	9832	3297.134754712447	7
0	9837	3297.839015424341	6
0	9843	3298.633028905727	7
0	9849	3299.872112344439	8
0	9850	3300.483120867262	7
0	9855	3300.559851414491	6
0	9860	3300.955837062771	5
0	9864	3301.314081510047	6
0	9868	3303.2549095015	5
0	9873	3305.048187064368	4
0	9880	3307.857355298961	5
0	9882	3308.252466248802	6
0	9887	3311.397804749061	5
0	9893	3311.426708964526	6
0	9896	3314.901671580568	5
0	9903	3316.849133012703	4
0	9908	3316.865728065296	3
0	9914	3317.881425161371	4
0	9915	3319.453167745731	3
0	9921	3322.426963494931	2
0	9935	3331.46248490143	1
0	9940	3331.632202120958	0
0	9959	3336.637337644703	1
0	9960	3336.856066930515	0
0	9981	3343.105882369054	1
0	9982	3344.567672111701	0
0	9993	3349.486695362493	1
0	9997	3351.218552456604	0
0	10019	3357.841052437568	1
0	10020	3357.858368029195	0
0	10028	3359.487805422581	1
0	10030	3360.065706917913	2
0	10032	3363.318951062192	1
0	10037	3363.392137348068	0
0	10047	3365.052016151379	1
0	10049	3366.740785425008	2
0	10051	3367.048478465054	3
0	10054	3371.237611321488	2
0	10061	3373.282035342104	3
0	10062	3379.423394281404	2
0	10069	3380.332790993559	3
0	10072	3381.810122257669	4
0	10074	3382.269118221052	5
0	10075	3383.57654172578	4
0	10080	3384.21628740586	3
0	10085	3384.342597844858	2
0	10093	3388.9902732526	1
0	10104	3394.725715942252	2
0	10105	3396.625746732393	1
0	10113	3402.888268251435	2
0	10114	3403.142787445895	1
0	10120	3404.432936220464	2
0	10124	3407.880555133305	3
0	10125	3408.312067169949	2
0	10130	3410.667439863742	1
0	10136	3410.8500746886	2
0	10137	3410.971529554756	1
0	10146	3415.766285964886	2
0	10147	3416.240708481987	1
0	10154	3418.151254172891	2
0	10156	3420.844219993757	3
0	10157	3425.090346908583	2
0	10163	3425.522095126125	1
0	10168	3425.685868807538	0
0	10193	3431.273976649095	1
0	10197	3435.827442766988	2
0	10198	3436.497789046844	1
0	10204	3437.753940218802	2
0	10207	3440.609220113506	3
0	10209	3441.340422621431	4
0	10213	3448.44387981202	5
0	10215	3448.448385700583	6
0	10221	3450.125030475309	7
0	10222	3450.394201070742	6
0	10228	3451.337046534265	7
0	10231	3453.400290593268	8
0	10233	3453.699256505274	9
0	10234	3454.071406268956	8
0	10241	3454.810015155676	9
0	10245	3455.800679854425	10
0	10247	3456.485180398381	9
0	10255	3459.179750635124	8
0	10260	3461.324984551536	7
0	10266	3462.888590444214	6
0	10272	3464.199908242025	7
0	10273	3464.789929505984	6
0	10278	3464.912323571546	5
0	10284	3466.597065901515	4
0	10289	3468.398982558965	3
0	10298	3474.146095485704	2
0	10304	3474.291765049386	3
0	10306	3474.559207703054	4
0	10309	3474.976067925876	5
0	10311	3477.067478535805	6
0	10312	3483.364787315269	5
0	10319	3487.340713541584	4
0	10324	3487.591533827449	3
0	10330	3488.661359456728	4
0	10338	3491.653124149609	5
0	10341	3495.332032768178	4
0	10350	3500.461211441743	3
0	10355	3501.002958795618	2
0	10362	3504.11431672151	3
0	10363	3504.557054316848	2
0	10372	3506.947732772622	3
0	10373	3507.926170513326	2
0	10379	3509.288759899397	3
0	10382	3510.53714961803	4
0	10384	3510.539686603757	5
0	10390	3512.260511317333	6
0	10392	3512.720451790735	7
0	10395	3512.749923200668	6
0	10400	3513.40540786663	5
0	10405	3514.016652362268	4
0	10411	3514.089960946327	5
0	10414	3515.785942083693	4
0	10419	3515.953209274258	3
0	10424	3516.164262229187	2
0	10434	3520.518997705167	3
0	10435	3520.682630545259	2
0	10444	3523.575481026721	3
0	10445	3523.788714840117	2
0	10450	3526.693607072122	1
0	10459	3528.175438792161	0
0	10465	3528.788564626585	1
0	10467	3528.823886352577	2
0	10469	3529.633216034517	3
0	10472	3531.376283675438	2
0	10478	3534.192809728546	1
0	10486	3537.303389795175	0
0	10492	3537.600557916886	1
0	10493	3537.803747819256	0
0	10501	3539.152145656271	1
0	10502	3542.55271625005	0
0	10564	3564.530275423557	1
0	10572	3573.716516846932	2
0	10573	3573.763353946617	1
0	10582	3576.70935844885	2
0	10585	3577.854775737646	1
0	10593	3581.907473554139	0
0	10605	3582.36506371305	1
0	10606	3582.570850960394	0
0	10638	3590.811702429288	1
0	10640	3591.220076306124	2
0	10643	3592.319058987352	3
0	10644	3592.939623023685	2
0	10650	3594.371481818932	1
0	10656	3594.534380706431	2
0	10657	3594.886324480653	1
0	10664	3595.291628715171	2
0	10667	3596.776869024581	3
0	10669	3597.401657453319	4
0	10671	3598.240627374611	5
0	10674	3601.959816515236	6
0	10676	3602.060816485126	7
0	10677	3602.684649883928	6
0	10682	3602.732926463819	5
0	10687	3603.011398228694	4
0	10692	3603.731567141146	3
0	10697	3604.427833824398	2
0	10706	3607.230427730193	1
0	10713	3607.984867092432	2
0	10715	3608.537890376015	3
0	10717	3609.231333845405	2
0	10723	3610.478766627304	1
0	10730	3611.741130728347	2
0	10731	3611.996646557182	1
0	10736	3613.398465324318	0
0	10747	3614.111662196167	1
0	10748	3614.285166743776	0
0	10765	3622.531238000077	1
0	10768	3624.018499467197	2
0	10769	3624.175341419093	1
0	10775	3624.859626027675	2
0	10780	3625.264675599502	3
0	10781	3625.458813670377	2
0	10790	3628.067127663094	3
0	10792	3628.384059552562	4
0	10798	3630.785567087259	5
0	10799	3631.170848892917	4
0	10806	3631.326279102904	5
0	10807	3631.759262477683	4
0	10813	3632.407180817567	3
0	10821	3634.406867151986	2
0	10828	3635.554851550131	1
0	10834	3635.572692294092	2
0	10839	3638.082216326581	1
0	10846	3638.820728007604	2
0	10848	3641.314043602879	1
0	10853	3641.776237273857	0
0	10883	3652.560117161994	1
0	10889	3654.832819417879	2
0	10894	3656.820383260529	1
0	10900	3657.896591840385	0
0	10911	3660.877634774428	1
0	10914	3661.387499266786	0
0	10927	3666.380275362827	1
0	10930	3668.26167989703	0
0	10940	3669.503395042238	1
0	10943	3673.714991793765	0
0	10959	3678.230481439753	1
0	10961	3678.788952784932	2
0	10962	3681.773299185235	1
0	10968	3682.09743699536	0
0	10994	3689.994975854896	1
0	10995	3690.118572918655	0
0	11004	3690.798108260263	1
0	11006	3692.233764359048	2
0	11010	3692.817505622052	3
0	11012	3693.119249404878	4
0	11014	3693.804185274463	5
0	11021	3700.172469248822	4
0	11027	3700.982878459003	5
0	11029	3701.635054523294	4
0	11036	3704.059497460526	3
0	11041	3704.238451907653	2
0	11047	3704.777345929495	1
0	11054	3706.188530219661	0
0	11092	3723.659466085081	1
0	11098	3727.712048751448	2
0	11100	3727.895871742532	3
0	11103	3730.344536385739	2
0	11108	3730.454524971799	1
0	11116	3733.72573211403	0
0	11155	3749.59500334169	1
0	11156	3752.886915599487	0
0	11166	3757.629037661362	1
0	11171	3760.177279116485	0
0	11183	3763.803081470877	1
0	11185	3764.314745186291	2
0	11188	3765.802192889196	1
0	11197	3767.859662513574	0
0	11214	3769.300295272711	1
0	11219	3771.840444578202	2
0	11220	3772.348156246887	1
0	11225	3773.361058328725	0
0	11235	3774.335307105891	1
0	11238	3775.288500962378	0
0	11245	3775.944598794467	1
0	11246	3776.798354620008	0
0	11260	3779.727423871459	1
0	11264	3783.208163610904	0
0	11274	3787.473548571948	1
0	11275	3788.516794221996	0
0	11287	3789.727259402443	1
0	11288	3790.643850167355	0
0	11296	3794.087993039585	1
0	11297	3794.439489943422	0
0	11304	3795.084412888278	1
0	11306	3795.238358086483	2
0	11307	3796.633053713463	1
0	11315	3801.966996534112	0
0	11326	3803.794394695394	1
0	11327	3804.648414766294	0
0	11341	3806.582959905538	1
0	11345	3810.032929064291	0
0	11358	3812.194280134133	1
0	11361	3812.294244170527	2
0	11362	3814.89928785684	1
0	11368	3815.77853367519	0
0	11413	3832.306909166647	1
0	11415	3832.361350957125	2
0	11419	3834.025763640696	3
0	11421	3835.629330126612	4
0	11422	3837.053005886828	3
0	11428	3837.389366950965	4
0	11429	3837.401217070485	3
0	11434	3838.57562858839	2
0	11440	3841.307217049503	1
0	11445	3841.839692767823	0
0	11457	3844.921814609208	1
0	11460	3846.481158700982	0
0	11473	3850.104478694024	1
0	11474	3851.376238917085	0
0	11491	3853.923949752918	1
0	11495	3859.249610666197	2
0	11500	3862.41325567368	1
0	11507	3866.656336214022	0
0	11513	3866.739942864981	1
0	11515	3867.483299116267	0
0	11524	3869.234552922332	1
0	11528	3871.859274082422	0
0	11551	3881.045147624292	1
0	11552	3882.289753709977	0
0	11571	3892.885458735022	1
0	11574	3895.265165428306	0
0	11613	3912.978266427661	1
0	11616	3914.329970399477	0
0	11648	3923.608203139608	1
0	11651	3925.202453729099	0
0	11660	3925.902697897138	1
0	11668	3929.022642238009	2
0	11671	3930.387709042549	1
0	11676	3932.407723313297	0
0	11688	3935.012771989611	1
0	11690	3936.53864834157	0
0	11699	3937.449620705409	1
0	11701	3937.910913399461	2
0	11706	3942.226946148551	1
0	11712	3943.527464404733	2
0	11713	3944.546463579811	1
0	11718	3944.574130510859	0
0	11730	3947.815246108259	1
0	11734	3948.445918559314	2
0	11737	3949.625477864547	1
0	11742	3950.052327760491	0
0	11757	3957.874807318869	1
0	11759	3960.201289984764	2
0	11761	3961.99536005752	3
0	11762	3963.664519891728	2
0	11768	3965.992709582439	1
0	11774	3966.840762819805	2
0	11775	3967.336512360355	1
0	11782	3970.687616527323	0
0	11788	3970.846599158415	1
0	11790	3971.272346822515	2
0	11791	3972.537225191722	1
0	11797	3972.859328268857	2
0	11799	3973.17346067419	3
0	11804	3974.7902165604	2
0	11809	3974.927236757299	1
0	11817	3977.339417299768	2
0	11819	3977.910602012921	3
0	11823	3978.196205661654	4
0	11828	3982.122182490527	3
0	11833	3982.161087621487	2
0	11840	3982.270056532557	3
0	11842	3982.430762551047	4
0	11844	3982.714566988241	5
0	11847	3985.660453331249	4
0	11854	3986.814857232267	5
0	11856	3987.726728241543	4
0	11861	3988.609495106507	3
0	11868	3992.479311243991	4
0	11869	3993.229980639371	3
0	11874	3993.277825364118	2
0	11879	3993.355521647108	1
0	11891	4001.696551914636	0
0	11913	4004.586847532215	1
0	11914	4004.834423463433	0
0	11936	4017.337900723925	1
0	11938	4018.667593625567	2
0	11944	4022.684060315527	3
0	11945	4024.482184436955	2
0	11951	4026.577733545076	3
0	11957	4031.40600290294	2
0	11963	4032.719879530792	3
0	11965	4033.575336300191	2
0	11971	4034.306803891029	3
0	11975	4035.912237049326	2
0	11982	4037.02106534602	3
0	11983	4037.056466537281	2
0	11989	4040.544995538259	1
0	11994	4040.755961840841	0
0	12006	4042.344804700578	1
0	12012	4044.534409989186	0
0	12019	4046.969434063384	1
0	12024	4052.510126266837	2
0	12025	4053.163377097066	1
0	12030	4054.518252043091	0
0	12036	4055.219436100067	1
0	12037	4056.230810491926	0
0	12055	4061.174997046061	1
0	12058	4062.288965602778	0
0	12104	4075.530944516729	1
0	12116	4083.518728938581	0
0	12122	4083.672052122974	1
0	12123	4083.909273486945	0
0	12139	4088.60830657454	1
0	12151	4092.901746651936	2
0	12153	4095.504283934829	1
0	12159	4095.504304962843	2
0	12162	4098.595716948132	3
0	12164	4099.229657157551	4
0	12166	4100.607214279854	5
0	12168	4100.776425964546	6
0	12169	4101.10337076705	5
0	12174	4101.653717626125	4
0	12188	4105.69203263966	3
0	12193	4106.168078149777	2
0	12200	4106.892813872956	1
0	12205	4106.930067437316	0
0	12211	4107.860196791971	1
0	12212	4108.543569047226	0
0	12218	4109.634657623986	1
0	12219	4111.884947347441	0
0	12242	4119.856918940591	1
0	12244	4120.269584820582	2
0	12245	4121.64340293152	1
0	12252	4122.967623860042	2
0	12253	4123.098922143587	1
0	12261	4126.300969503442	2
0	12262	4126.449322513233	1
0	12267	4127.922897122822	0
0	12274	4129.560511789151	1
0	12275	4129.955718324058	0
0	12281	4130.570647203283	1
0	12283	4130.689611107316	0
0	12289	4131.140723772013	1
0	12292	4132.053804093593	0
0	12299	4133.421004203994	1
0	12304	4137.449094350047	0
0	12310	4137.651597545983	1
0	12312	4138.838998003335	2
0	12314	4139.405466379326	1
0	12320	4139.791430574341	0
0	12356	4153.99645712328	1
0	12359	4157.356997450926	0
0	12366	4157.904926992656	1
0	12370	4158.837614296467	2
0	12372	4159.938277520828	1
0	12381	4163.172409613709	2
0	12383	4164.311035514199	3
0	12384	4166.00259774544	2
0	12391	4167.364580620312	3
0	12392	4170.805221652101	2
0	12398	4171.445202907711	3
0	12400	4171.616694670652	4
0	12402	4172.716417561405	5
0	12405	4175.191030506011	4
0	12412	4176.021710259276	5
0	12413	4176.196364695632	4
0	12418	4176.476752361707	3
0	12424	4177.084801934235	4
0	12426	4177.463854836706	5
0	12428	4178.163405339743	6
0	12429	4179.401464548172	5
0	12436	4182.574531100568	4
0	12442	4182.909779904237	5
0	12444	4183.207351375754	6
0	12446	4183.777797656039	5
0	12453	4186.059628281339	4
0	12459	4187.135958341849	5
0	12461	4187.725728711724	6
0	12462	4192.207008478508	5
0	12470	4193.198585868753	6
0	12472	4193.606216410104	7
0	12475	4195.685708611542	8
0	12477	4195.942160524158	9
0	12479	4196.407956000046	10
0	12481	4196.433052681604	11
0	12483	4196.801855798324	12
0	12490	4209.541080570999	11
0	12495	4210.719426851521	10
0	12500	4211.540831723247	9
0	12507	4213.102105444806	8
0	12513	4215.506049309001	9
0	12515	4216.593514948959	10
0	12519	4218.364939620411	11
0	12520	4219.05265201324	10
0	12525	4220.215348885682	9
0	12530	4221.055050791563	8
0	12534	4221.260885411685	9
0	12537	4222.557058211959	8
0	12542	4223.136431939287	7
0	12547	4223.244632269655	6
0	12560	4225.365465114811	7
0	12563	4228.185206565014	6
0	12569	4229.186124204146	7
0	12570	4229.957058319968	6
0	12577	4231.138735126128	5
0	12583	4232.596420169385	4
0	12589	4232.775638144184	5
0	12590	4233.618702689401	4
0	12595	4234.312511313585	3
0	12601	4234.559096516833	4
0	12602	4235.194239500647	3
0	12610	4238.283783476933	2
0	12617	4239.36001265603	3
0	12618	4241.354597931416	2
0	12624	4241.700008659913	1
0	12630	4242.51727899235	2
0	12635	4245.232416263398	1
0	12642	4246.825595905902	0
0	12673	4255.234488231061	1
0	12677	4257.517397910477	2
0	12679	4258.734181232504	3
0	12681	4259.455006401316	4
0	12682	4259.504232901679	3
0	12690	4262.206800839915	2
0	12698	4265.869513929819	1
0	12705	4266.965759127004	2
0	12706	4267.98191978642	1
0	12714	4269.961958285052	0
0	12739	4274.425513441735	1
0	12742	4275.559681055725	0
0	12768	4281.312840907177	1
0	12769	4281.538410571666	0
0	12778	4282.485285348539	1
0	12785	4286.842303548748	0
0	12797	4288.070321762138	1
0	12799	4290.205309928723	0
0	12817	4293.192149345142	1
0	12819	4295.002588219916	2
0	12820	4295.445939594619	1
0	12825	4295.961214771114	0
0	12835	4296.985635154124	1
0	12839	4299.04603018561	0
0	12845	4299.804549405196	1
0	12850	4300.863858080575	0
0	12869	4309.456431920858	1
0	12870	4309.865490084881	0
0	12896	4323.482804573226	1
0	12897	4323.557034487747	0
0	12915	4327.246362843116	1
0	12917	4327.635938989235	2
0	12920	4330.186502950127	1
0	12926	4334.686966415919	2
0	12932	4340.181672019819	1
0	12939	4341.381344968448	2
0	12941	4345.912730587024	3
0	12943	4347.090315234169	4
0	12945	4349.582779460944	5
0	12946	4352.353755179434	4
0	12955	4356.047740185843	5
0	12958	4357.379999204764	4
0	12967	4359.539683483605	3
0	12973	4361.269713049214	4
0	12974	4363.67087243739	3
0	12983	4365.116755648589	4
0	12985	4366.218366184737	3
0	12993	4366.790333961847	4
0	12994	4367.152996837541	3
0	13001	4368.198940037549	2
0	13006	4368.689348566367	1
0	13011	4368.799290839001	0
0	13020	4371.162222513407	1
0	13022	4372.73156161927	2
0	13023	4373.935694502602	1
0	13030	4375.12260701611	0
0	13050	4380.647600071813	1
0	13051	4383.493168830069	0
0	13069	4387.305517305816	1
0	13072	4389.010220665508	0
0	13079	4389.576820506746	1
0	13081	4391.0471489271	2
0	13083	4391.163364398677	3
0	13086	4394.088027848053	2
0	13093	4395.833352592501	1
0	13101	4397.459292430037	0
0	13126	4410.236761101717	1
0	13129	4412.026580623864	0
0	13148	4417.747587868294	1
0	13150	4417.940379494099	2
0	13152	4419.847379179014	3
0	13154	4421.758190946088	4
0	13156	4423.738126785912	5
0	13160	4425.678449407296	6
0	13162	4426.068575943077	7
0	13164	4429.634904010371	8
0	13166	4430.780105721482	9
0	13167	4431.63263369673	8
0	13172	4433.313510894621	7
0	13180	4433.672280097081	8
0	13185	4438.434093101265	7
0	13194	4441.414614931519	8
0	13195	4441.843575725432	7
0	13200	4441.941825890454	6
0	13208	4444.887648707406	5
0	13213	4444.964997294956	4
0	13220	4446.315116541415	5
0	13223	4446.42308471279	6
0	13225	4448.578400611288	7
0	13226	4449.762311851565	6
0	13232	4450.817662141795	5
0	13237	4453.469800830954	4
0	13244	4453.898337573822	3
0	13250	4455.427906159429	2
0	13259	4457.847221028595	3
0	13261	4458.319342606006	4
0	13262	4459.748919553287	3
0	13267	4459.848170866009	2
0	13273	4461.57720519684	3
0	13278	4464.815673213779	2
0	13285	4467.52966859867	3
0	13287	4467.640503269439	4
0	13288	4469.924661945494	3
0	13294	4472.954103115841	2
0	13301	4474.544462967588	1
0	13306	4475.029685578206	0
0	13325	4483.973656507396	1
0	13326	4484.52694569641	0
0	13344	4488.962394523974	1
0	13348	4492.488330854964	0
0	13357	4493.310070748717	1
0	13359	4495.994361114517	0
0	13368	4502.174349729626	1
0	13372	4507.081144386126	2
0	13374	4507.709874176351	3
0	13377	4511.781406742229	2
0	13384	4512.559716327299	3
0	13386	4513.400203791188	2
0	13391	4513.689744680783	1
0	13399	4514.447535288901	2
0	13401	4515.431864966384	3
0	13403	4515.684092582644	4
0	13404	4517.267911487279	3
0	13410	4519.328503715003	2
0	13415	4519.357396488771	1
0	13420	4520.158047809137	0
0	13426	4520.911491132888	1
0	13427	4521.816082965929	0
0	13453	4529.189000802012	1
0	13454	4529.467848285798	0
0	13461	4530.06232965849	1
0	13462	4530.242868790247	0
0	13489	4537.733443862522	1
0	13493	4538.964153774294	2
0	13494	4540.201523464329	1
0	13500	4540.557842766355	2
0	13501	4541.260610528499	1
0	13508	4543.186606306061	0
0	13525	4545.915159805841	1
0	13531	4547.316728420249	2
0	13533	4549.970376796504	1
0	13541	4556.500725470767	2
0	13544	4560.806965922742	1
0	13551	4561.899434884878	2
0	13553	4561.976151889294	3
0	13554	4563.248896380685	2
0	13560	4565.099667476798	1
0	13567	4565.674962065996	2
0	13568	4566.980382772423	1
0	13577	4569.129691620138	2
0	13579	4569.933314895231	3
0	13581	4570.792368448069	4
0	13583	4572.41067188732	5
0	13587	4573.254346733882	6
0	13588	4574.747044577049	5
0	13593	4575.577871714283	4
0	13600	4577.818715987554	3
0	13605	4578.562544873065	2
0	13611	4578.707956669233	3
0	13612	4579.839147850569	2
0	13617	4580.039080301284	1
0	13621	4581.700537274245	2
0	13625	4582.861919540244	3
0	13629	4583.323143331423	4
0	13630	4583.524513765497	3
0	13638	4584.978815987957	4
0	13642	4585.828530490004	3
0	13650	4587.16950817968	4
0	13651	4588.096752043185	3
0	13656	4588.564105751702	2
0	13663	4589.629729109644	3
0	13668	4591.777309959427	4
0	13669	4592.512463291884	3
0	13674	4592.534388783864	2
0	13681	4593.149216949977	1
0	13689	4595.137377026668	2
0	13690	4595.935876625258	1
0	13696	4603.770131851564	2
0	13702	4606.492687519134	1
0	13707	4609.359744542048	0
0	13745	4619.300404765506	1
0	13746	4619.921927119716	0
0	13755	4621.057580028474	1
0	13760	4624.980431665813	0
0	13766	4625.071103909905	1
0	13775	4629.669505660246	0
0	13781	4630.058393036039	1
0	13783	4630.939477650234	0
0	13802	4638.124493424432	1
0	13804	4638.239581438978	2
0	13805	4639.226584378036	1
0	13813	4639.446508912696	0
0	13866	4656.160229099915	1
0	13868	4656.197585731296	2
0	13872	4656.883937971351	3
0	13873	4662.260147608972	2
0	13879	4662.760421652571	3
0	13880	4663.12576571607	2
0	13889	4666.483443391662	1
0	13898	4668.82768546939	0
0	13904	4668.903520157541	1
0	13906	4670.780949110125	0
0	13920	4681.403084141829	1
0	13921	4681.616890999947	0
0	13929	4682.935805401902	1
0	13931	4683.788375216973	2
0	13934	4685.840281390231	3
0	13935	4686.367131201479	2
0	13940	4686.660153691705	1
0	13945	4688.586266902797	0
0	13952	4691.306331529947	1
0	13953	4691.626705958796	0
0	13999	4712.300117490678	1
0	14002	4713.42597682844	0
0	14014	4716.795321156161	1
0	14017	4720.005138627564	0
0	14023	4721.485404472978	1
0	14024	4721.655250020213	0
0	14030	4721.726301238393	1
0	14034	4724.365517446753	2
0	14038	4725.871453870871	1
0	14043	4726.036098820088	0
0	14073	4736.332313274943	1
0	14076	4736.780273683535	2
0	14078	4738.254223769635	3
0	14079	4740.277088336554	2
0	14089	4743.683770231398	1
0	14096	4744.737965283621	2
0	14098	4744.805588011539	3
0	14099	4744.893324559604	2
0	14106	4745.355723219198	3
0	14107	4745.704142378327	2
0	14112	4746.411819390955	1
0	14119	4747.757504089285	0
0	14142	4753.892178676052	1
0	14144	4754.166411006785	2
0	14146	4755.338273541259	3
0	14149	4755.682098499614	2
0	14154	4756.335716275958	1
0	14159	4756.704742256652	0
0	14166	4758.128888479329	1
0	14170	4760.96419497429	0
0	14176	4761.569347391404	1
0	14178	4761.927409716701	2
0	14179	4762.101708259146	1
0	14190	4767.834337073916	2
0	14191	4768.296900802255	1
0	14196	4768.544001577712	0
0	14200	4770.069667396578	1
0	14202	4770.832759075272	2
0	14205	4771.380088340256	1
0	14214	4778.070291245074	2
0	14215	4779.702589374255	1
0	14223	4783.312787292452	2
0	14225	4785.475369276731	1
0	14230	4787.553941032838	0
0	14298	4804.460156852263	1
0	14300	4804.823132895173	2
0	14303	4806.732863843666	1
0	14308	4807.197851615768	0
0	14317	4810.568647457552	1
0	14320	4811.153774766887	0
0	14326	4811.166199953583	1
0	14336	4813.700695434287	0
0	14342	4814.568875990151	1
0	14344	4816.075456481849	2
0	14347	4817.011310088547	1
0	14352	4817.398285782504	0
0	14415	4838.643144510391	1
0	14419	4840.624039832791	2
0	14421	4842.018193722028	3
0	14423	4843.144517123526	4
0	14425	4844.310906611744	5
0	14428	4846.466780587413	4
0	14435	4847.33734328699	5
0	14436	4848.781171871479	4
0	14443	4849.209994979823	5
0	14444	4850.750537308516	4
0	14449	4851.164817634163	3
0	14454	4852.00580138009	2
0	14459	4852.530300263016	1
0	14464	4853.417345617668	0
0	14468	4854.477944899146	1
0	14473	4856.248767614634	0
0	14481	4857.452600896509	1
0	14483	4858.195387551983	0
0	14494	4862.399147747454	1
0	14496	4862.619500036324	2
0	14502	4864.867291524302	3
0	14503	4864.990721965712	2
0	14509	4865.235963402273	3
0	14510	4866.197762103044	2
0	14514	4866.3790371603	3
0	14517	4867.141888382972	2
0	14521	4868.28621992066	3
0	14532	4876.672812108319	4
0	14533	4880.670909243127	3
0	14539	4881.490486615351	4
0	14540	4882.369406521033	3
0	14547	4884.497962069902	4
0	14553	4888.66979342983	5
0	14554	4889.742799846129	4
0	14561	4891.481976668246	5
0	14563	4893.599827337644	6
0	14564	4894.028077926281	5
0	14569	4894.088738029008	4
0	14575	4894.241175191792	5
0	14579	4897.349736076541	6
0	14582	4900.017651729489	5
0	14587	4900.732355567061	4
0	14594	4902.355458477151	3
0	14600	4903.600538256184	2
0	14613	4911.722027972969	3
0	14614	4913.440522713975	2
0	14620	4914.167381870457	1
0	14625	4918.372231310668	0
0	14631	4918.775903677216	1
0	14633	4919.922185803447	0
0	14642	4925.889178076907	1
0	14645	4930.804270772573	0
0	14671	4933.164637112009	1
0	14672	4933.52798426246	0
0	14678	4934.050781586331	1
0	14680	4935.632370179637	0
0	14686	4935.651298154914	1
0	14687	4936.529106924037	0
0	14700	4939.185176977094	1
0	14708	4944.823070102265	0
0	14715	4948.449800072894	1
0	14716	4949.784755787093	0
0	14722	4950.02143017993	1
0	14725	4954.280490538956	2
0	14727	4954.675896073787	3
0	14728	4955.417203255137	2
0	14734	4956.720452668439	1
0	14739	4957.312751513403	0
0	14758	4963.738682810069	1
0	14759	4964.098718964346	0
0	14770	4964.589933109301	1
0	14776	4965.1783710185	2
0	14779	4965.85410400171	3
0	14780	4966.089772425885	2
0	14787	4967.609314748582	1
0	14793	4968.078732199646	2
0	14794	4968.196676099949	1
0	14801	4971.419667801991	2
0	14807	4975.491957350969	3
0	14808	4976.29048290464	2
0	14814	4978.23579828063	1
0	14820	4978.552616995552	2
0	14824	4979.528520345639	3
0	14825	4979.97443371585	2
0	14830	4981.033085110166	1
0	14835	4981.092991785594	0
0	14858	4983.684068488225	1
0	14860	4985.760698624617	0
0	14869	4986.580295473222	1
0	14876	4993.29209477917	2
0	14877	4994.65390372901	1
0	14883	4996.299005250391	0
0	14889	4996.376976236521	1
0	14890	4998.566788581016	0
0	14899	5000.737428108188	1
0	14903	5009.547892185492	0
0	14911	5011.668465967396	1
0	14912	5011.795690585822	0
0	14918	5012.104673523324	1
0	14921	5012.222373968389	0
0	14948	5016.40851268009	1
0	14951	5017.888930906637	0
0	14961	5019.203606189605	1
0	14964	5020.284112804424	0
0	14971	5022.247164100796	1
0	14972	5022.561991799175	0
0	14998	5025.226170838462	1
0	14999	5025.489508794794	0
0	15010	5027.321525119895	1
0	15013	5028.63650028817	0
0	15022	5030.463825503936	1
0	15024	5030.529059475255	2
0	15026	5030.775622635367	3
0	15028	5030.791707700861	4
0	15034	5034.936042090717	5
0	15038	5038.099975499531	4
0	15046	5040.601202037121	3
0	15051	5041.579740785898	2
0	15059	5042.83864971319	3
0	15060	5045.813690528768	2
0	15068	5046.339981960389	3
0	15071	5047.911702782197	4
0	15073	5048.081092979504	5
0	15074	5049.145061038389	4
0	15079	5049.585495246219	3
0	15087	5053.14919951273	2
0	15094	5054.305502999356	3
0	15095	5054.412199395746	2
0	15101	5054.9695566309	3
0	15105	5056.575343924485	4
0	15107	5056.946406392815	5
0	15108	5057.083678242278	4
0	15113	5058.304383298824	3
0	15121	5060.975506686626	2
0	15127	5061.87998005155	3
0	15129	5062.207425014943	2
0	15134	5062.592738789416	1
0	15142	5063.562902334899	2
0	15143	5063.778590316321	1
0	15150	5065.970693497825	2
0	15153	5067.851308612202	1
0	15158	5068.133022027275	0
0	15177	5074.818801006739	1
0	15179	5077.324819524542	2
0	15190	5084.283932539555	1
0	15197	5085.375072122305	2
0	15198	5085.467380475133	1
0	15203	5085.781808548759	0
0	15216	5087.170436643837	1
0	15220	5088.431849199423	2
0	15226	5093.36675008071	1
0	15232	5096.180268449032	0
0	15259	5107.652069511691	1
0	15260	5108.127876520678	0
0	15266	5108.286268144832	1
0	15268	5110.574108900257	0
0	15280	5116.440871872359	1
0	15286	5118.415044176877	2
0	15290	5119.288634137364	3
0	15293	5123.251672500182	2
0	15301	5124.582118781827	1
0	15306	5124.970301064453	0
0	15312	5125.162633929363	1
0	15314	5126.948448019425	2
0	15318	5128.146634877828	3
0	15320	5129.021520678981	4
0	15321	5129.432124531285	3
0	15327	5131.329848759974	2
0	15333	5131.787133055854	1
0	15340	5132.377953481207	2
0	15343	5134.260853361276	1
0	15351	5135.980180730982	2
0	15352	5135.996019498119	1
0	15358	5137.190020351366	0
0	15392	5148.214769496947	1
0	15395	5150.018353022163	0
0	15412	5155.423890255449	1
0	15413	5156.093636941076	0
0	15419	5156.850572752813	1
0	15423	5157.936608104632	2
0	15424	5158.491362970307	1
0	15434	5162.494401298224	0
0	15440	5163.70411306029	1
0	15441	5163.933918652794	0
0	15448	5166.198862829803	1
0	15451	5166.617817501546	2
0	15453	5167.57398169109	3
0	15454	5169.737526566668	2
0	15459	5170.72307809576	1
0	15465	5171.111229296509	0
0	15471	5171.702513045226	1
0	15478	5173.179713263864	2
0	15480	5173.583989984327	3
0	15481	5173.8967342823	2
0	15489	5174.778244116042	3
0	15490	5174.882753225103	2
0	15495	5176.137043046255	1
0	15500	5177.505621724178	0
0	15516	5179.92894472555	1
0	15517	5181.767785570026	0
0	15544	5187.510881638312	1
0	15548	5188.778506738529	2
0	15549	5190.276854980351	1
0	15555	5192.430961090865	0
0	15593	5206.383541226741	1
0	15597	5210.016745591961	2
0	15598	5211.785456513944	1
0	15608	5219.049387642912	2
0	15609	5219.906215088303	1
0	15615	5222.427799326473	0
0	15632	5226.900807404153	1
0	15637	5229.83820297559	0
0	15675	5240.179184886956	1
0	15676	5240.282073367525	0
0	15682	5240.850672726623	1
0	15685	5241.907923886839	2
0	15686	5242.900891775808	1
0	15692	5244.364128589734	0
0	15711	5248.003094456563	1
0	15716	5249.907098933968	0
0	15749	5261.604083046864	1
0	15752	5262.224400234649	0
0	15759	5263.233236084902	1
0	15761	5263.570493327523	2
0	15764	5265.590754997753	1
0	15770	5269.027576977778	0
0	15779	5272.0202232624	1
0	15780	5274.464446929013	0
0	15793	5276.420791403659	1
0	15795	5276.729394755389	2
0	15800	5282.632675101998	1
0	15808	5283.858608885509	0
0	15830	5292.606423722691	1
0	15834	5293.533680729121	2
0	15836	5293.726740552362	3
0	15839	5294.872398337793	2
0	15844	5295.063578981692	1
0	15853	5296.831602673894	0
0	15868	5300.898436833539	1
0	15872	5301.349148180489	2
0	15874	5301.394051867572	3
0	15878	5303.022221054081	4
0	15880	5305.432812887942	5
0	15881	5305.621837972757	4
0	15886	5306.617209480495	3
0	15892	5308.053206684717	2
0	15897	5308.466416600692	1
0	15907	5314.232579875452	0
0	15931	5323.001575754568	1
0	15934	5324.384621776294	0
0	15941	5325.692913312138	1
0	15943	5326.250833670134	2
0	15945	5329.011350857531	3
0	15946	5331.156676018311	2
0	15951	5331.858041568497	1
0	15958	5332.660095342051	0
0	15964	5333.186010344798	1
0	15970	5337.150621141215	0
0	15976	5337.715858419821	1
0	15978	5337.754955734898	2
0	15979	5337.85242395372	1
0	15987	5338.664345636582	2
0	15988	5340.28538369435	1
0	16004	5345.689186555162	0
0	16021	5353.29507117432	1
0	16022	5354.202079720971	0
0	16033	5356.240474832705	1
0	16034	5358.044689335896	0
0	16046	5361.883344195413	1
0	16049	5362.36212345199	2
0	16052	5368.375069056501	1
0	16059	5369.099782128363	2
0	16062	5370.207663125218	1
0	16068	5370.344564738988	2
0	16072	5375.828625168911	1
0	16077	5376.289960223496	0
0	16083	5376.317064858639	1
0	16085	5377.264320261263	0
0	16091	5377.286218815712	1
0	16092	5378.87257807364	0
0	16096	5379.894671459002	1
0	16101	5382.04580108188	0
0	16129	5385.628220125327	1
0	16134	5386.877119353607	0
0	16148	5388.553446202475	1
0	16150	5389.410219819486	2
0	16152	5390.629921647686	3
0	16153	5391.774713211843	2
0	16159	5397.118529804671	1
0	16165	5397.806732933572	2
0	16170	5401.146889120647	3
0	16173	5403.008115884997	2
0	16184	5406.311780746364	3
0	16186	5406.98265678538	4
0	16187	5410.85700823665	3
0	16195	5412.683249693643	2
0	16201	5412.983410496749	1
0	16206	5415.958360528658	0
0	16227	5421.441846555971	1
0	16229	5422.607489739824	2
0	16231	5422.972269089106	3
0	16233	5429.332615313525	4
0	16235	5429.377850852546	5
0	16236	5430.29958733521	4
0	16242	5430.731419264741	5
0	16243	5431.01778555893	4
0	16248	5432.33015363042	3
0	16258	5433.797241564645	4
0	16261	5436.514800874117	3
0	16266	5437.224036660056	2
0	16272	5437.870375841078	3
0	16273	5438.234486548278	2
0	16281	5440.781669685424	1
0	16287	5443.311493859672	0
0	16302	5445.87317130597	1
0	16304	5446.284692827019	2
0	16306	5446.553508898335	3
0	16308	5447.848041666068	4
0	16310	5448.318679557935	5
0	16311	5448.853312538945	4
0	16316	5450.510893180519	3
0	16324	5452.396099023434	4
0	16326	5454.81531027719	5
0	16327	5455.512711754593	4
0	16332	5455.748101994914	3
0	16339	5459.084338052225	4
0	16346	5460.325240628479	3
0	16352	5461.324373911338	4
0	16353	5462.3182734147	3
0	16361	5465.940900720248	4
0	16364	5466.805601847753	3
0	16373	5469.408598486024	4
0	16375	5469.773475598658	5
0	16377	5473.552397705075	6
0	16378	5475.04534988641	5
0	16383	5475.726020543521	4
0	16391	5476.769899028353	5
0	16397	5478.223487751632	6
0	16398	5478.714185294849	5
0	16407	5480.850746827736	6
0	16411	5484.222510828826	7
0	16414	5487.737826608428	6
0	16419	5488.155654321356	5
0	16428	5492.005985495493	4
0	16433	5492.786775640165	3
0	16440	5496.145562137036	2
0	16446	5496.472495666493	3
0	16448	5496.861538717418	4
0	16449	5498.884504868985	3
0	16454	5498.90787895107	2
0	16459	5500.196559645004	1
0	16463	5504.234108560092	2
0	16465	5505.546014057473	3
0	16467	5506.607980841694	4
0	16473	5508.823337931297	5
0	16478	5514.964115746892	6
0	16479	5515.550064692798	5
0	16485	5516.477657004958	4
0	16494	5518.47830015086	5
0	16498	5520.464204214057	6
0	16499	5521.195161942794	5
0	16507	5523.587800833702	4
0	16512	5523.801681526647	3
0	16517	5524.456400843722	2
0	16524	5525.012076110362	1
0	16531	5526.980825133527	2
0	16533	5528.167474635969	3
0	16539	5529.860792576779	4
0	16542	5531.047248310361	5
0	16543	5531.949028028955	4
0	16548	5531.949083758064	3
0	16555	5533.48180262411	4
0	16557	5534.246589010988	3
0	16564	5537.134115867499	2
0	16569	5537.341074943071	1
0	16574	5537.555649614368	0
0	16600	5539.80142550822	1
0	16603	5540.626470437939	2
0	16604	5540.82229717703	1
0	16609	5540.881795564733	0
0	16623	5541.798934941873	1
0	16637	5552.298919878069	0
0	16649	5555.247723145236	1
0	16650	5555.37389730431	0
0	16664	5561.833204489911	1
0	16666	5562.035165199073	2
0	16667	5563.64859730793	1
0	16673	5563.65525351376	2
0	16674	5564.210018640646	1
0	16681	5564.299001158356	2
0	16688	5567.851321203302	1
0	16694	5567.954291186024	2
0	16696	5569.564034334862	1
0	16703	5572.874932438877	2
0	16704	5574.580844791238	1
0	16715	5577.928623274508	2
0	16717	5578.443603144995	3
0	16718	5579.171857622598	2
0	16727	5582.52116497212	3
0	16728	5583.21216674132	2
0	16733	5583.891167707456	1
0	16739	5586.76396409278	0
0	16753	5591.532035483302	1
0	16754	5592.059995541211	0
0	16761	5592.680444468948	1
0	16763	5593.127785615046	2
0	16765	5597.207486967282	1
0	16771	5598.576977718086	0
0	16777	5598.898169383489	1
0	16780	5600.823269966659	2
0	16783	5603.283852988609	1
0	16791	5606.125530467393	0
0	16813	5609.216420310698	1
0	16816	5612.338702351176	0
0	16822	5613.074255234773	1
0	16823	5613.108307162177	0
0	16830	5613.736530337375	1
0	16831	5614.523174728621	0
0	16840	5614.741746868159	1
0	16842	5615.441725466783	2
0	16845	5617.700437023502	1
0	16850	5618.308082173414	0
0	16856	5618.694086665531	1
0	16860	5620.601042258227	2
0	16862	5622.339406753271	1
0	16867	5622.442175102477	0
0	16876	5623.753800687078	1
0	16880	5625.029355769037	2
0	16887	5628.572839501961	3
0	16888	5628.759766299606	2
0	16895	5632.041206386095	3
0	16896	5632.34579068302	2
0	16902	5634.505768666752	1
0	16907	5635.373051067425	0
0	16914	5636.925603889003	1
0	16916	5637.646489360748	2
0	16918	5638.089622189408	1
0	16925	5639.326888511892	0
0	16936	5645.052032536907	1
0	16937	5646.408349184122	0
0	16983	5674.18365531407	1
0	16985	5675.75239835845	2
0	16987	5676.319898543753	3
0	16988	5678.501209087874	2
0	16994	5680.860750456064	1
0	17000	5681.453375364244	0
0	17024	5692.721464807685	1
0	17028	5696.672444324011	0
0	17034	5696.701784298697	1
0	17036	5697.015007032873	2
0	17038	5697.387736099074	1
0	17043	5697.601752296094	0
0	17049	5698.325825005667	1
0	17053	5699.473413938842	0
0	17063	5700.354131233852	1
0	17064	5700.419256051707	0
0	17072	5703.235863456357	1
0	17074	5703.258054284387	2
0	17075	5703.483417384671	1
0	17081	5704.600942588865	2
0	17082	5705.285485986796	1
0	17089	5707.055862522247	0
0	17115	5712.601415826254	1
0	17116	5712.689182533638	0
0	17133	5717.756391877909	1
0	17135	5717.77357692168	2
0	17139	5721.55911591642	3
0	17143	5725.309051770761	2
0	17149	5729.347202368774	1
0	17154	5729.361695693732	0
0	17165	5733.575738585643	1
0	17166	5733.702613812587	0
0	17183	5739.638198659409	1
0	17185	5745.345543696404	0
0	17214	5750.61563259382	1
0	17217	5753.532366886573	0
0	17232	5757.300924477035	1
0	17238	5766.906281793801	0
0	17249	5767.560505795591	1
0	17253	5770.183992829456	0
0	17278	5774.714425549007	1
0	17280	5775.605941778799	2
0	17281	5776.580303718187	1
0	17286	5776.661913719682	0
0	17302	5782.477134346284	1
0	17304	5782.986443421323	2
0	17308	5786.109561116292	3
0	17311	5788.013418668239	2
0	17318	5788.868329947624	1
0	17323	5789.531463566894	0
0	17359	5797.107334444228	1
0	17361	5797.79889236011	2
0	17364	5798.829733908277	1
0	17372	5800.448658619984	0
0	17380	5802.297765129117	1
0	17382	5802.910386573517	0
0	17390	5804.368912713684	1
0	17392	5806.32071297072	0
0	17398	5807.319973115261	1
0	17399	5807.331335008484	0
0	17412	5809.563623032212	1
0	17413	5810.158665097823	0
0	17419	5810.558068979791	1
0	17425	5814.810732841661	2
0	17426	5816.083300213141	1
0	17432	5817.391597892583	0
0	17463	5825.391529104326	1
0	17465	5828.207513091042	2
0	17467	5830.393816492149	3
0	17469	5830.447492335826	4
0	17474	5834.024165261499	3
0	17483	5835.295021949567	4
0	17484	5835.567975391095	3
0	17490	5837.071685316167	4
0	17492	5837.781729776062	5
0	17495	5839.769067305199	6
0	17496	5840.71632983619	5
0	17503	5843.033278669245	4
0	17509	5843.272332829052	3
0	17514	5843.661328519792	2
0	17519	5843.960382521564	1
0	17527	5844.777265306236	0
0	17539	5846.646950331925	1
0	17543	5849.534909308528	0
0	17554	5850.852579679386	1
0	17555	5850.968631516461	0
0	17563	5853.541483497168	1
0	17565	5853.766834551795	2
0	17568	5855.138179350228	1
0	17573	5855.472427245084	0
0	17624	5869.854742320282	1
0	17626	5870.260810143196	2
0	17627	5870.318936127701	1
0	17633	5872.446634417114	0
0	17643	5875.330309267915	1
0	17647	5881.239600833997	2
0	17651	5882.162480019494	3
0	17652	5884.539590608005	2
0	17658	5884.596428164021	3
0	17659	5884.721265371674	2
0	17664	5885.439939843518	1
0	17673	5890.634934130754	2
0	17675	5890.727019038803	3
0	17676	5893.019549345184	2
0	17683	5893.460512987465	3
0	17687	5894.349862590268	4
0	17689	5894.555283229057	5
0	17690	5894.870384256145	4
0	17698	5896.724459014221	5
0	17700	5896.864616830744	6
0	17704	5899.089127434243	5
0	17709	5899.103663163133	4
0	17715	5899.336470671781	5
0	17719	5903.573218806318	6
0	17720	5904.341448903673	5
0	17727	5906.908743003324	6
0	17730	5907.371675539024	7
0	17732	5908.378022740317	8
0	17733	5908.639013121914	7
0	17746	5911.190558767151	8
0	17748	5913.71101755373	9
0	17749	5914.381272676609	8
0	17757	5916.658041481769	7
0	17762	5918.452011579336	6
0	17768	5920.630858471703	7
0	17771	5924.180483525595	6
0	17778	5925.908146863595	5
0	17785	5926.072070220662	6
0	17787	5926.465127642736	7
0	17788	5932.005791725079	6
0	17796	5932.622189146124	5
0	17803	5935.362815451798	4
0	17809	5937.185571910586	3
0	17814	5939.087126331513	2
0	17820	5942.991528008385	1
0	17829	5945.214792623193	0
0	17841	5947.082941380637	1
0	17843	5951.332502898076	0
0	17855	5952.608774092808	1
0	17856	5953.286844882511	0
0	17881	5968.493273499026	1
0	17882	5969.727861467988	0
0	17901	5976.330874368133	1
0	17912	5983.96771114083	2
[...]
4	79189	26382.635032838379	5106.8822860143
4	79300	26425.271695111066	5145.9020306476
4	79305	26426.032554297479	5142.2981061
4	79316	26433.566800151763	5139.2070730875
4	79331	26438.050935377004	5130.7378737567
4	79336	26443.458100085489	5116.2412721983
4	79341	26444.69536636057	5110.2925314992
4	79360	26451.9238743945	5109.2891360374
4	79409	26464.877606050814	5117.8072061655
4	79415	26465.452339886138	5112.8867571158
4	79422	26469.884977794159	5108.3914883009
4	79429	26475.132688568879	5104.8191593798
4	79447	26480.516852164868	5107.6813281378
4	79470	26486.110088353693	5111.5141665776
4	79475	26489.724950356075	5114.3855511136
4	79482	26490.961242109136	5103.5578168332
4	79492	26493.002859003077	5104.052727632
4	79506	26500.57115364713	5099.8555370053
4	79528	26504.696256162096	5103.3218560042
4	79548	26514.383146199142	5112.0642275175
4	79567	26517.778372384751	5111.225192065
4	79579	26521.998724361385	5110.4158498707
4	79588	26524.560872860517	5106.4263819782
4	79610	26527.937677875581	5105.707711014
4	79630	26535.486870150622	5111.4307903882
4	79654	26542.071204951904	5113.8632085097
4	79659	26542.242993415852	5113.2161987943
4	79668	26544.19024694857	5107.0743097574
4	79679	26544.874602226011	5105.3456366735
4	79692	26550.168137728138	5098.7656162865
4	79719	26554.774374560134	5102.0760536468
4	79729	26556.337290108201	5090.5270114246
4	79740	26560.77707188443	5087.9027647001
4	79751	26565.141189669299	5087.8157783984
4	79776	26573.255043466172	5081.6703532715
4	79787	26576.724213841366	5079.3958023601
4	79792	26577.658391616986	5077.1078063763
4	79803	26583.30229073994	5078.0371485604
4	79816	26585.978872065894	5066.6683966607
4	79821	26586.138135129502	5066.0572756504
4	79832	26589.820596265468	5066.3836529037
4	79867	26594.934043863807	5059.7719912443
4	79876	26600.044935502983	5058.6878770238
4	79881	26600.717311765832	5058.7965157112
4	79894	26604.62417647487	5058.4782425209
4	79971	26626.192815141687	5066.8152060821
4	80015	26632.792872068274	5066.6614139473
4	80025	26638.516642795686	5069.5523603973
4	80068	26648.282237029321	5078.0700467109
4	80073	26648.626733090377	5074.7685560551
4	80095	26662.533838697054	5084.8380744123
4	80171	26683.357293804255	5099.1946009961
4	80178	26691.813289499649	5090.6689168295
4	80189	26694.875358869962	5091.9627130904
4	80209	26706.066892044648	5102.238688455
4	80214	26706.357709173554	5095.502192845
4	80221	26708.11743494234	5095.9217575217
4	80235	26712.099284047701	5095.2907113033
4	80244	26715.774317912451	5098.3012805405
4	80261	26723.768344404291	5100.8715082364
4	80278	26728.64211531208	5101.0492573116
4	80328	26742.974957319357	5112.4988654377
4	80337	26745.808870395324	5115.1797528316
4	80343	26747.552197336079	5114.7244925249
4	80351	26753.33325188816	5119.9677521059
4	80358	26755.933361194486	5121.7674802497
4	80381	26761.990783677164	5105.4600535247
4	80398	26763.1245158692	5100.3387523032
4	80409	26771.047444012511	5096.3702699738
4	80414	26774.025627471324	5098.5021350162
4	80433	26782.623371845941	5101.8103381136
4	80619	26840.781856115927	5153.7462128285
4	80638	26845.485690412042	5152.0888688893
4	80664	26854.416806405542	5160.5791026731
4	80671	26855.534584942604	5155.4643856491
4	80692	26864.098760375415	5161.2554994846
4	80711	26868.006280661876	5161.6445698187
4	80716	26868.126162552034	5148.880057148
4	80722	26873.226211704654	5150.4852564897
4	80731	26874.235365592218	5144.8714540156
4	80838	26908.559068969836	5178.3363486075
4	80858	26910.74395056059	5179.8675886388
4	81322	27066.127095871624	5331.8736864597
4	81364	27082.209538232338	5345.9480440003
4	81374	27086.192056762325	5348.6364069757
4	81389	27095.102245677828	5354.0365087526
4	81405	27096.457668508834	5354.980129422
4	81437	27102.104056826396	5343.6584542497
4	81442	27102.622537189298	5331.7660580502
4	81456	27108.046891843437	5333.8161956006
4	81469	27113.098334707155	5327.5339884109
4	81479	27116.687990970189	5329.6705926675
4	81499	27120.207641253656	5328.0499340088
4	81516	27125.442032613565	5327.2913050765
4	81524	27128.038697224011	5325.8559570569
4	81560	27136.341024789486	5332.4716196861
4	81570	27137.820605017079	5327.5973611053
4	81579	27142.286660693662	5331.0977795474
4	81626	27155.461102973507	5338.0714221299
4	81653	27163.990494239865	5341.657898964
4	81663	27166.569224444267	5332.1922847753
4	81682	27172.571632569846	5337.2592385888
4	81687	27173.041168539035	5336.0505080033
4	81694	27174.975584393163	5337.1315838503
4	81723	27182.578198189647	5339.8764211143
4	81739	27185.90186618869	5332.0600291514
4	81771	27196.415534903421	5327.7466325046
4	81791	27201.430027037714	5332.1721293082
4	81848	27218.982845837731	5340.6859067889
4	81871	27221.534062491899	5331.1715551945
4	81900	27240.397780588847	5343.1035519007
4	81913	27246.470630398525	5342.0890369873
4	81939	27251.728731367306	5343.4851037087
4	81944	27252.256880398161	5339.1437114569
4	81949	27255.520627892218	5341.6708970364
4	81959	27260.157314592864	5329.8190868055
4	81977	27268.596829535519	5336.5635924539
4	81989	27273.790367968578	5339.908870092
4	82011	27278.131228789509	5343.0338143505
4	82076	27299.421260817499	5354.0084417037
4	82081	27300.961532595992	5355.0937953882
4	82088	27302.258390695987	5351.3038929683
4	82102	27306.08491148272	5350.8290085855
4	82122	27309.977410987089	5354.1491180131
4	82135	27317.424913525842	5361.296757251
4	82150	27320.884718957606	5362.6408978947
4	82181	27328.845079627686	5369.2343983253
4	82188	27334.306322709081	5369.6147101316
4	82219	27350.420258640692	5380.7504597271
4	82245	27359.679228989267	5388.7107736446
4	82254	27360.734317868997	5388.0335589609
4	82267	27364.672152099869	5390.405102719
4	82282	27370.085420553441	5394.5983821983
4	82332	27390.820814916813	5414.6699096187
4	82339	27391.53854983186	5414.4348054438
4	82348	27396.179925507866	5413.18498237
4	82381	27404.372932801209	5417.6511316593
4	82412	27414.597093021466	5427.637347862
4	82423	27419.66621442963	5423.6457498875
4	82634	27489.975643416178	5493.2114989448
4	82658	27497.410589701538	5498.278652492
4	82713	27506.896917763826	5505.0464543811
4	82735	27516.514858072721	5506.5766375203
4	82746	27518.434843164553	5496.3795040834
4	82759	27530.066741126846	5501.961145973
4	82869	27569.539917326335	5531.5212856313
4	82890	27581.130365889286	5536.3297040656
4	82901	27587.995182470435	5532.3592336542
4	82932	27594.570840742186	5538.2474713763
4	82937	27595.071361029393	5531.2158285388
4	82950	27597.167258486025	5515.2792804397
4	83043	27627.040060683331	5539.6968317361
4	83049	27627.65307651992	5532.8165250146
4	83060	27633.028977525751	5536.1599601742
4	83095	27644.074092375189	5542.1450319054
4	83102	27648.915035061971	5545.6839698633
4	83111	27659.534405642485	5548.9726582332
4	83123	27667.094192719616	5546.6266191868
4	83128	27667.466515571856	5522.4132987435
4	83137	27672.451767422316	5525.8667576227
4	83146	27675.469427758806	5501.2123923417
4	83168	27682.986151146018	5507.8031048983
4	83173	27684.528452680689	5507.9059755059
4	83180	27687.43565652934	5506.6173957651
4	83205	27692.436023162742	5507.8801286207
4	83212	27695.509882059206	5510.9269706938
4	83225	27709.250672175779	5519.1665812431
4	83238	27716.28482244976	5524.0763675435
4	83243	27717.139383815223	5522.1737494078
4	83250	27722.935978343269	5524.974523501
4	83262	27725.345526640665	5525.6652583157
4	83267	27726.532419505978	5523.7945993217
4	83272	27728.227576380969	5517.0737063976
4	83282	27730.24492080901	5505.0329533575
4	83447	27773.599167557733	5538.0653797949
4	83452	27774.207452957202	5537.5262487514
4	83465	27781.242216506069	5543.3727224921
4	83502	27789.307463013298	5542.1729556447
4	83521	27793.961511876781	5543.0184534815
4	83531	27797.756733477437	5546.1801868083
4	83550	27803.792561314167	5546.5029839338
4	83562	27804.500233199646	5545.6524057526
4	83575	27808.428854503746	5548.3899762577
4	83593	27814.698155828338	5551.3367107102
4	83598	27815.674288710741	5518.2542201137
4	83609	27820.091439770305	5520.3791778933
4	83620	27822.355016867146	5519.3383414973
4	83635	27829.239918459897	5513.2056620292
4	83685	27842.98875149789	5525.8403852817
4	83692	27843.375813258633	5518.2556641395
4	83710	27849.921910749143	5523.7067570457
4	83715	27850.542070114446	5523.5230216756
4	83720	27850.556509111283	5518.1465608817
4	83733	27855.754247981969	5512.8612077513
4	83789	27868.412207809665	5522.7346688244
4	83813	27877.019314091806	5520.2436596353
4	83987	27936.772174769868	5572.8869554957
4	83997	27948.480624354607	5577.5564602074
4	84010	27953.40407781764	5580.7794397506
4	84023	27955.758772347162	5579.0934578913
4	84044	27963.125203518711	5585.95680742
4	84052	27967.55235744834	5584.3702240162
4	84068	27974.397697439371	5585.98690406
4	84114	27989.872191956277	5594.7940305162
4	84121	27992.199558026987	5595.4973004018
4	84126	27997.05963537873	5599.5943766603
4	84137	28004.788759536003	5590.658352612
4	84166	28010.669952417215	5591.376900629
4	84183	28018.875887568592	5594.2095770399
4	84217	28028.121948122396	5600.4299311828
4	84236	28037.968549376042	5601.5839884204
4	84275	28050.175758373603	5610.1395149458
4	84284	28052.30604531014	5598.4327293166
4	84289	28055.503118532039	5590.5583264222
4	84307	28066.690463979308	5596.6601731229
4	84330	28072.724550239017	5601.7481220534
4	84337	28074.472412713376	5602.4533044725
4	84348	28079.547883127936	5594.4726297501
4	84353	28080.662415715428	5593.5120276956
4	84362	28083.67815762415	5591.5994894803
4	84393	28093.370616174025	5584.5583748834
4	84467	28128.738923877416	5600.7341469803
4	84528	28154.240906284947	5625.1936474776
4	84549	28167.539853403451	5637.0108158064
4	84559	28168.588582510738	5628.4969818655
4	84566	28168.925706498498	5626.7182617177
4	84574	28172.333374592653	5628.3707623588
4	84597	28181.861183345055	5635.4118365856
4	84721	28237.120914751943	5690.3778959879
4	84739	28242.612099111126	5682.5273911033
4	84752	28247.052305938958	5684.4935638144
4	84763	28247.96909080172	5684.3646132648
4	84768	28250.033365404186	5662.7177923762
4	84775	28255.363746222992	5667.6127105633
4	84790	28256.787403439728	5666.8076037254
4	84797	28259.259646974061	5655.984851576
4	84811	28263.457571242563	5654.1222093099
4	84826	28270.39292279727	5659.2149631314
4	84837	28276.996400092938	5663.6269135094
4	84846	28279.247310979767	5651.472264565
4	84986	28327.556212149845	5666.1684994479
4	84991	28334.763650648699	5662.2834430094
4	84996	28340.901040814254	5664.8683910297
4	85009	28348.1917446665	5670.9104011371
4	85044	28357.403415313684	5674.861186438
4	85051	28357.676956595446	5674.4431256468
4	85072	28367.127686646185	5678.1669359977
4	85079	28369.491223573633	5680.4888170086
4	85084	28369.627405334797	5676.3051468501
4	85092	28374.629041810444	5664.5707795584
4	85103	28379.666859791926	5669.1185952502
4	85305	28435.651729717354	5721.9531543206
4	85316	28438.047712288384	5721.5822324426
4	85324	28442.108450561125	5715.100972972
4	85339	28447.953305929075	5716.6701833409
4	85382	28463.550800402402	5719.0221658722
4	85418	28478.234576851257	5732.5345162586
4	85455	28488.14021714201	5729.3555195236
4	85476	28496.346468537553	5736.7437795373
4	85495	28503.569967422117	5734.5490809411
4	85501	28507.461498705029	5722.5575986291
4	85514	28515.617485108859	5729.6437844583
4	85543	28527.726775898545	5738.2581282603
4	85594	28543.285709627219	5749.1366549296
4	85599	28544.712300274121	5747.3818572941
4	85610	28555.25798596036	5745.4087123484
4	85630	28558.328498412738	5748.3969106455
4	85642	28561.733626133526	5750.7027449474
4	85654	28571.174389873401	5758.2910420274
4	85681	28582.550320731434	5760.4305117517
4	85728	28598.538190481693	5775.9534797059
4	85733	28598.959802612129	5776.0740381973
4	85739	28600.083752371983	5744.7900685079
4	85746	28602.40975411278	5741.3704169372
4	85758	28604.687298362306	5742.2251862291
4	85821	28619.773037213855	5755.7400302782
4	85831	28623.842424499249	5754.7955011769
4	85842	28633.562062405852	5751.5629637035
4	85874	28644.064320483776	5761.8990962559
4	85882	28644.977592772378	5761.0536571733
4	85892	28646.884472917048	5753.4834093557
4	85906	28649.090298915558	5747.8319394577
4	85914	28653.213106982146	5749.1434158693
4	85937	28661.765101256161	5755.9115881129
4	85962	28673.364910337113	5765.3376563961
4	85972	28675.533431936899	5765.1661613686
4	85981	28681.266057687526	5770.7834212505
4	86008	28689.630993643621	5769.430619757
4	86017	28693.182341979319	5770.8022788303
4	86056	28711.807179004535	5780.7069890697
4	86069	28714.364259595322	5775.1547086781
4	86102	28724.692535073457	5764.8029165869
4	86115	28731.403292345588	5766.4436875367
4	86220	28759.424159938014	5789.0071110221
4	86243	28765.378648428156	5794.7527120613
4	86254	28768.663818890401	5794.3580917328
4	86310	28781.68416158808	5804.5563015684
4	86315	28782.159969147098	5798.4317949058
4	86327	28786.931839034832	5797.0824687598
4	86355	28793.879598983921	5800.9840418557
4	86376	28800.102815783673	5802.4708667299
4	86382	28801.151940631738	5799.9968775606
4	86393	28812.632284653761	5794.8045898977
4	86413	28819.023531710033	5793.3488623129
4	86439	28824.856177374339	5794.4986666409
4	86444	28825.41706862857	5786.4797146163
4	86449	28827.264985605226	5785.5348496906
4	86457	28830.707577852195	5787.4545912986
4	86472	28832.744199211513	5770.9291361237
4	86478	28836.280088991856	5770.822675818
4	86490	28840.696262733708	5772.8931349149
4	86507	28850.083916512963	5767.315904219
4	86538	28858.089147991889	5765.2858335797
4	86554	28864.648755973862	5771.1919865641
4	86565	28866.881524008352	5770.7549900034
4	86570	28867.807498706931	5759.5934062962
4	86579	28869.262292598388	5745.0603143335
4	86664	28889.192872252298	5761.0378528893
4	86671	28890.19065563868	5752.2435435071
4	86676	28894.58928927817	5751.9962360128
4	86683	28899.465492038445	5747.427064456
4	86697	28906.912644897548	5743.8436768633
4	86720	28913.855196185708	5741.5204985265
4	86725	28914.389654431753	5740.180798383
4	86732	28917.11720828133	5733.253370136
4	86737	28917.660605875613	5726.3840767802
4	86742	28918.369015800858	5723.0579059003
4	86755	28924.873958036406	5729.0642015015
4	86772	28932.565054325994	5735.5238881638
4	86839	28948.60904261502	5744.7680699313
4	86845	28950.224354727398	5745.0465838121
4	86851	28950.822141047208	5745.2143108864
4	86858	28952.63988245125	5729.0210532503
4	86890	28960.636337443206	5729.9995059826
4	86897	28961.641572295527	5707.7350348482
4	86910	28968.723025647406	5697.2853723466
4	87239	29097.784378013593	5810.5417100325
4	87249	29102.215687834613	5813.6350846032
4	87254	29102.402996135905	5812.6268185587
4	87266	29107.835877708525	5816.5341146128
4	87279	29111.707918183633	5819.0262879951
4	87302	29121.254441973975	5825.0520128299
4	87418	29156.122177475119	5852.0140725007
4	87425	29160.823707594016	5838.3847945549
4	87434	29162.677799259978	5834.7328762644
4	87453	29165.713398894171	5834.3153157335
4	87458	29167.828409382781	5831.19897204
4	87465	29173.407995283233	5835.8815163334
4	87488	29176.951545019042	5838.0956781701
4	87519	29183.598023337193	5841.1364610786
4	87557	29191.877836562764	5843.5248695373
4	87568	29194.418163539284	5845.9401318036
4	87581	29197.646142989325	5835.3400686496
4	87592	29203.013405486501	5819.985131843
4	87641	29216.074481192395	5831.0273966033
4	87653	29220.503940216973	5829.8561217678
4	87836	29277.858504438807	5884.9761032659
4	87846	29283.454236858434	5882.3755141398
4	87920	29301.916306665747	5896.7143757162
4	87927	29304.371377587514	5898.4916171458
4	87936	29306.328181370288	5889.9282434905
4	87977	29323.318236789313	5898.6402317436
4	87982	29326.402080782711	5894.8632987053
4	87989	29330.487638127792	5896.9093834007
4	88002	29339.014819899957	5890.8321417644
4	88017	29345.602686801539	5892.7368815257
4	88155	29406.085040796674	5939.6426655638
4	88165	29406.499459876748	5931.8955288005
4	88176	29409.142375805191	5926.5839124755
4	88202	29414.934365549671	5922.4739049546
4	88224	29423.617579351714	5929.3081196557
4	88233	29425.347903945465	5928.6573495024
4	88254	29432.627237050092	5922.3237600646
4	88265	29438.423419811433	5917.5224719419
4	88289	29447.380624309901	5923.9725760405
4	88346	29471.08591364231	5942.4911817292
4	88356	29475.926397758903	5932.897380721
4	88374	29480.760139353531	5935.1448395329
4	88380	29484.644774173677	5927.4294187735
4	88395	29492.706213686577	5922.8400123345
4	88434	29509.935678680993	5936.6399587408
4	88461	29515.988727829429	5938.4582533404
4	88498	29523.403612007588	5936.2770439804
4	88505	29526.929788822785	5939.0024789967
4	88514	29529.164184448556	5922.9467843473
4	88528	29535.091600199679	5924.2406751463
4	88535	29542.286926355349	5908.0163878399
4	88542	29545.208518297335	5886.2902635173
4	88567	29552.347011049029	5886.0266181447
4	88683	29586.879873265086	5911.4173373401
4	88718	29593.437288830914	5906.1551280363
4	88726	29595.614889849534	5908.1585267301
4	88737	29598.108643666782	5904.072311593
4	88750	29605.284352500575	5911.1180032945
4	88811	29615.443563699427	5913.23853807
4	88817	29617.305250710539	5913.7845635466
4	88826	29623.748611877562	5919.4659019581
4	88844	29631.147486618839	5920.1724241375
4	88849	29631.804373660046	5913.7422324669
4	88856	29632.881196909287	5911.8464875948
4	88873	29637.169859403941	5905.0286407477
4	88880	29638.030817931252	5904.0213734899
4	88889	29640.017672535084	5903.4896688227
4	88923	29654.807500344914	5918.1714718047
4	88928	29660.049128114405	5920.7875385403
4	88941	29665.608703005757	5919.9886243664
4	89053	29704.561647763761	5944.5249677616
4	89060	29705.331374022888	5941.6892120922
4	89070	29707.655447098785	5938.1128647209
4	89077	29709.986383031933	5939.694273428
4	89083	29712.776023096072	5937.8408447635
4	89092	29715.326564484331	5935.1777440031
4	89103	29720.593560207069	5939.4323519834
4	89114	29723.276956277505	5929.6702963485
4	89127	29731.066284609286	5930.2888056039
4	89139	29731.999672354789	5921.2171288832
4	89144	29734.14171215256	5918.7685327545
4	89149	29735.870533721302	5914.1531200035
4	89154	29738.266460549264	5912.3131947151
4	89163	29742.015084104337	5905.1416524121
4	89181	29745.227726331278	5907.8086113299
4	89206	29746.895164487285	5908.2298156122
4	89213	29749.671072792798	5887.9607031474
4	89224	29753.903828673787	5888.8004386576
4	89259	29762.023300395199	5888.1416164393
4	89264	29762.633941559016	5887.3122930158
4	89281	29770.415765015855	5892.5577020003
4	89319	29778.93833034035	5891.3222903366
4	89324	29783.502878121027	5894.6541850537
4	89329	29784.565834730586	5895.387855191
4	89336	29785.381677846461	5895.9369204269
4	89342	29786.13378545704	5896.0720392109
4	89347	29787.420984390537	5879.299942941
4	89362	29793.708428126631	5870.2959029287
4	89385	29798.119895752697	5871.9565367888
4	89438	29826.106957063461	5894.5504564849
4	89448	29827.996808198401	5893.7546664581
4	89453	29832.229944585075	5892.8581191847
4	89460	29833.072628447625	5878.2807965205
4	89478	29837.896122283671	5881.0274498166
4	89525	29854.767875464862	5893.1104861487
4	89530	29854.837259254104	5885.5542077406
4	89544	29857.635818425736	5882.4129748757
4	89557	29861.446458567717	5879.3231678011
4	89593	29876.197494752254	5890.4695535852
4	89598	29876.262805852432	5890.0541278065
4	89605	29880.34517826288	5893.6195166814
4	89616	29884.691138440535	5885.5679704359
4	89643	29890.983960703606	5882.8485223508
4	89649	29894.389483961063	5885.3524954421
4	89654	29896.165976607787	5881.6718642873
4	89659	29897.859447544558	5882.0765953984
4	89673	29902.73922853031	5885.0739599195
4	89750	29919.435552514169	5900.3799437591
4	89755	29919.806032318486	5885.7681043435
4	89760	29919.866036310058	5870.2814090081
4	89766	29921.125778863409	5865.6767035038
4	89779	29925.084125262665	5858.1618870158
4	89873	29948.93616100204	5880.6476900291
4	89882	29952.959739023478	5884.5488132711
4	89888	29955.360674927091	5884.0134104517
4	89895	29959.639421085276	5887.6862182916
4	89906	29965.215895832891	5883.0402434672
4	89911	29966.193602331029	5879.7687952288
4	89924	29970.250298721852	5880.7219877514
4	89944	29977.452921011787	5884.5495345577
4	89955	29982.005462054684	5887.7636548489

