version 2
run Third-n5-0-20191016-14:53:43-9476
attr configname Third-n5
attr datetime 20191016-14:53:43
attr experiment Third-n5
attr inifile omnetpp.ini
attr iterationvars ""
attr iterationvarsf ""
attr measurement ""
attr network org.omnetpp.queueing.Pizza
attr processid 9476
attr repetition 0
attr replication ""
attr resultdir results
attr runnumber 0
attr seedset 0
param **.PS.maxInventoriedPS 5
param **.U1.interArrivalTime exponential(4s)
param **.U2.interArrivalTime exponential(6s)
param **.PS.serviceTimeForInventoryU1 exponential(1.4s)
param **.PS.serviceTimeForInventoryU2 exponential(1.4s)
param **.PS.serviceTimeDirectU1 exponential(1.8s)
param **.PS.serviceTimeDirectU2 exponential(1.8s)
param **.PS.probabilityProducing 0.8
param **.CS.serviceTimeU1 exponential(2.3s)
param **.CS.serviceTimeU2 exponential(2.3s)

vector 0 Pizza.EntryQueueU1 queueLength:vector ETV
attr interpolationmode sample-hold
attr title "queue length, vector"
vector 1 Pizza.CS queueLength:vector ETV
attr interpolationmode sample-hold
attr title "queue length, vector"
vector 2 Pizza.EntryQueueU2 queueLength:vector ETV
attr interpolationmode sample-hold
attr title "queue length, vector"
vector 3 Pizza.sink lifeTime:vector ETV
attr interpolationmode none
attr title "lifetime of arrived jobs, vector"
attr unit s
vector 4 Pizza.sink lifeTimeU2:vector ETV
attr interpolationmode none
attr title "lifetime of arrived jobs, vector"
attr unit s
0	0	0	0
0	10	8.207221050453	1
0	13	10.852402924663	0
0	26	12.359858253108	1
0	32	15.370554706359	2
0	33	15.430707809346	1
0	40	15.665296128219	2
0	46	17.833316578455	1
0	51	19.309247675615	0
0	65	22.815246781974	1
0	69	26.413562111084	0
0	76	26.900974279371	1
0	78	27.645363267608	0
0	84	27.725787407493	1
0	87	28.306899516662	2
0	89	29.578133090516	1
0	97	31.785093438463	0
0	103	32.152423272925	1
0	104	33.159909415145	0
0	110	33.93449725313	1
0	114	38.510516857042	0
0	120	38.718928450958	1
0	122	39.053792281032	0
0	129	40.49254456544	1
0	130	41.206733868506	0
0	137	42.064994794656	1
0	138	42.534579783361	0
0	185	59.88298217936	1
0	186	60.73640706937	0
0	204	72.204675119154	1
0	206	72.285435631739	2
0	207	72.435822670344	1
0	213	72.445340827972	2
0	216	72.957567889217	3
0	218	74.362272246742	4
0	224	76.984857384197	5
0	226	78.515661179644	6
0	227	81.386433952888	5
0	232	81.538917976297	4
0	240	83.454458063249	3
0	247	87.012609967651	4
0	254	89.171297484296	3
0	259	89.496358125486	2
0	265	90.444192531948	3
0	270	91.810809200052	4
0	278	93.731307809906	3
0	284	94.095493274236	2
0	291	95.343325367889	3
0	293	96.70471232083	4
0	294	96.89346317714	3
0	300	100.138819318517	2
0	308	105.345406542997	1
0	315	109.805285031689	2
0	319	112.175781141498	3
0	320	112.365654353831	2
0	325	112.649765642764	1
0	334	116.51588671322	0
0	344	119.669620660927	1
0	345	121.425996748181	0
0	356	123.980960197473	1
0	358	126.18654415801	2
0	361	128.614573970795	1
0	368	130.044358419986	2
0	369	130.075367716746	1
0	375	130.863346853552	0
0	400	135.080532489041	1
0	401	136.89221410774	0
0	448	148.970674406171	1
0	451	152.780607976981	0
0	464	157.074309674584	1
0	466	157.677473715359	2
0	467	158.042946378327	1
0	474	159.768953835713	2
0	476	161.638044101353	3
0	480	164.055240388743	4
0	485	167.357594107578	3
0	490	167.39615996936	2
0	495	167.423261402772	1
0	502	169.176577203993	2
0	504	169.929757104869	3
0	508	171.588207275505	4
0	510	173.244122966196	5
0	511	174.057868432608	4
0	518	174.136679798599	5
0	519	174.489162020374	4
0	524	175.463573353494	3
0	530	176.627069174513	4
0	531	177.618992404258	3
0	541	181.139904224673	2
0	547	181.502256387887	3
0	549	182.746127607766	4
0	551	186.553446437935	5
0	554	187.399005213273	4
0	560	190.595262459957	3
0	566	191.099832418964	4
0	570	191.763352242136	3
0	576	192.054843910355	4
0	579	193.702203425589	3
0	584	194.295632782651	2
0	589	194.50068764964	1
0	595	196.147254947375	0
0	614	197.436233643291	1
0	618	199.854558516632	2
0	619	200.428328593663	1
0	624	200.990657944362	0
0	637	204.871371596996	1
0	638	206.439169737287	0
0	644	206.805925146955	1
0	645	207.342087702118	0
0	681	213.918498494291	1
0	683	215.793204398199	2
0	686	216.731074144823	1
0	692	217.205697530114	0
0	698	219.950026944525	1
0	702	220.367461423858	0
0	708	220.450157304219	1
0	713	223.269630572879	0
0	730	225.326154684944	1
0	731	226.881184292441	0
0	754	236.608698478604	1
0	755	238.451245129203	0
0	767	240.121558793477	1
0	769	240.382010252624	2
0	771	240.44827463031	3
0	772	242.214001335303	2
0	781	243.692838719222	3
0	783	244.763343769995	2
0	790	245.016478243927	3
0	792	246.415310674244	2
0	797	247.364589367716	1
0	802	248.761331731541	0
0	821	260.192573376278	1
0	823	261.056958242655	2
0	824	261.921482369523	1
0	831	264.905005949015	2
0	836	270.338694230282	1
0	841	271.835528117708	0
0	850	272.836001567429	1
0	853	274.019812000886	0
0	859	274.091993159682	1
0	860	274.833084123991	0
0	866	274.934126312498	1
0	867	275.128818669726	0
0	874	275.950171825899	1
0	875	276.327299958221	0
0	918	290.385935845834	1
0	924	291.512031935718	2
0	927	294.624966968703	1
0	933	294.772105259303	2
0	935	295.178241595069	3
0	939	296.438881709932	4
0	941	296.6667478398	5
0	942	297.611391930594	4
0	947	298.31052651682	3
0	954	299.255446655972	4
0	956	300.020767857905	3
0	963	304.013431661312	4
0	964	304.054311541459	3
0	970	304.188925709036	2
0	980	306.861463923811	3
0	982	307.647311467399	4
0	983	307.657820741778	3
0	988	307.680212183261	2
0	993	308.746009246603	1
0	1000	309.519737280338	2
0	1002	309.70228947832	3
0	1005	312.220070929418	2
0	1011	313.678114820348	1
0	1018	314.725863415681	2
0	1020	315.491047599275	3
0	1021	315.659950051477	2
0	1029	319.180901415047	1
0	1035	319.640027975686	2
0	1038	320.94071145764	3
0	1040	321.492524385357	4
0	1041	321.591966356446	3
0	1052	323.068754673145	4
0	1057	328.797474182403	3
0	1065	332.441714393516	4
0	1068	334.349711972571	3
0	1073	334.575386874617	2
0	1080	337.269293372995	1
0	1085	337.332410203985	0
0	1102	338.887042389998	1
0	1107	341.68714493446	2
0	1110	344.951219190319	3
0	1111	345.34223595488	2
0	1117	345.361426762333	3
0	1120	347.314336690892	2
0	1126	347.713746786271	1
0	1137	353.313184581709	2
0	1138	354.571839998121	1
0	1148	355.415261851847	0
0	1176	360.876101199435	1
0	1178	363.297836325996	2
0	1179	363.480943983597	1
0	1185	363.528207993264	2
0	1187	364.090294340163	1
0	1196	364.611105556213	2
0	1198	365.789810386023	1
0	1203	365.865719551653	0
0	1222	368.808474219921	1
0	1225	369.838985319969	0
0	1274	383.446722693768	1
0	1275	383.665923035664	0
0	1282	386.682641474299	1
0	1283	387.642898202334	0
0	1300	392.043745322217	1
0	1303	393.378709023361	0
0	1309	393.757775738936	1
0	1313	395.681288636148	2
0	1315	397.088358177868	3
0	1317	397.604512190605	4
0	1320	403.114645354925	3
0	1329	410.049072380953	2
0	1335	415.766023874951	1
0	1343	416.923393182482	2
0	1345	417.493404965084	3
0	1348	418.059811400535	2
0	1356	419.399468248974	3
0	1358	420.153727145978	4
0	1361	421.237167284186	3
0	1369	422.957909183282	4
0	1372	426.230986811301	3
0	1377	426.748584547184	2
0	1384	428.321516081647	3
0	1388	430.037163424733	4
0	1390	430.136875807644	5
0	1391	431.393628904588	4
0	1396	431.718833063873	3
0	1401	434.549486421244	2
0	1406	434.718551089307	1
0	1412	434.94710518648	2
0	1415	435.608277235763	3
0	1421	437.281805022254	2
0	1426	437.454746183331	1
0	1431	437.49957155712	0
0	1455	440.37220304935	1
0	1458	441.525927118097	0
0	1487	454.408457253365	1
0	1490	454.928679270582	0
0	1497	456.771798134983	1
0	1498	458.027811565071	0
0	1505	461.335971471996	1
0	1510	464.686582084219	0
0	1532	470.270530876391	1
0	1533	473.547022367069	0
0	1545	475.226676905904	1
0	1548	476.70436884059	0
0	1558	478.493047661296	1
0	1560	478.59150223758	2
0	1564	480.808576131233	3
0	1565	484.053805126041	2
0	1572	484.702466305817	3
0	1574	489.398746852995	4
0	1576	489.890597120547	5
0	1578	490.309446214264	6
0	1581	492.033410955227	5
0	1590	493.75230504432	6
0	1591	494.597016262125	5
0	1598	495.722070549828	6
0	1599	496.993258531213	5
0	1606	499.391157737476	6
0	1608	499.459220232394	7
0	1609	501.121006693406	6
0	1617	503.861094354305	7
0	1618	504.985656213593	6
0	1624	505.486745821295	7
0	1626	505.895952945333	8
0	1629	509.02349063775	9
0	1630	510.78140020944	8
0	1639	513.504664003038	7
0	1647	515.286275596657	6
0	1652	516.201556904349	5
0	1660	525.26691187899	4
0	1666	527.059842445301	3
0	1671	527.838257050781	2
0	1678	527.929071425195	3
0	1683	528.37919121071	4
0	1686	529.5114809541	5
0	1690	532.820784648514	6
0	1693	533.641197211897	5
0	1700	535.736832570459	4
0	1705	537.736947900384	3
0	1715	540.225782234697	2
0	1720	540.3187518633	1
0	1727	541.995467322476	0
0	1733	542.293728860524	1
0	1734	543.30763109505	0
0	1765	551.427304998201	1
0	1766	551.888980151504	0
0	1777	552.81502053082	1
0	1778	552.890107534917	0
0	1790	555.412663437998	1
0	1792	556.251129070159	0
0	1817	565.94918902177	1
0	1820	567.602082956246	0
0	1826	568.010979221799	1
0	1827	568.599591738167	0
0	1833	570.388843288593	1
0	1834	570.933997342418	0
0	1845	574.848310704875	1
0	1848	576.483181321811	2
0	1850	577.122380443548	3
0	1851	579.534038841909	2
0	1857	580.171005960163	1
0	1863	581.868720468024	0
0	1869	582.919667921451	1
0	1870	583.174862162199	0
0	1877	583.418840290493	1
0	1878	585.188831397808	0
0	1893	588.891056375995	1
0	1899	593.510954510269	2
0	1900	594.742735270711	1
0	1906	594.978067773728	0
0	1942	602.67198338987	1
0	1943	602.676205541011	0
0	1955	605.316302593189	1
0	1957	605.845148992504	2
0	1958	607.344198876665	1
0	1964	607.535908144772	2
0	1965	608.51782309151	1
0	1970	608.568925991153	0
0	1981	611.613488897044	1
0	1985	615.852068669881	2
0	1986	616.078308589399	1
0	1994	618.931516413136	2
0	1995	620.199113561938	1
0	2001	620.25194318935	2
0	2002	620.269051947596	1
0	2007	620.53652278116	0
0	2022	623.550230082065	1
0	2027	630.282595900844	0
0	2038	632.427412169159	1
0	2041	633.273096869071	2
0	2043	633.350329289842	3
0	2045	640.894789717205	4
0	2046	643.117311657993	3
0	2052	643.815277798227	4
0	2056	645.683890704068	5
0	2058	646.049469998858	4
0	2063	646.254563488075	3
0	2068	646.274637649581	2
0	2077	646.692449409798	3
0	2078	646.982896879416	2
0	2083	647.113269806079	1
0	2089	650.52834217639	0
0	2113	654.451896448161	1
0	2120	657.811187496496	0
0	2141	664.932702755683	1
0	2144	665.880870549279	0
0	2151	668.136337487126	1
0	2152	668.514109383058	0
0	2158	669.435604705711	1
0	2161	669.935048137066	2
0	2165	670.631725021492	3
0	2167	670.823473819821	4
0	2170	672.906085925617	3
0	2177	674.345547573059	4
0	2178	675.065828713721	3
0	2183	675.261032959113	2
0	2189	677.806143808756	3
0	2192	682.892583818033	4
0	2194	683.917498784234	3
0	2201	684.484827837984	4
0	2203	688.080754110596	3
0	2208	688.795805855735	2
0	2213	688.872751801727	1
0	2218	688.875935720721	0
0	2231	695.168927732016	1
0	2234	697.71234321869	0
0	2242	703.672650011789	1
0	2244	703.941837880604	2
0	2248	708.786148618072	1
0	2255	710.220391299037	2
0	2256	710.566514316241	1
0	2265	716.15222875655	2
0	2266	716.456340320207	1
0	2272	718.022951459835	0
0	2280	718.790239956815	1
0	2283	719.389220789848	2
0	2286	720.820631479159	3
0	2288	721.149681741044	4
0	2291	722.299586576398	3
0	2296	722.690717880622	2
0	2303	723.343343116464	1
0	2310	727.965408158717	2
0	2311	728.177238359847	1
0	2320	730.227899842806	2
0	2321	730.264288075707	1
0	2328	732.43581295546	0
0	2336	736.146200408131	1
0	2338	737.163019058973	2
0	2339	738.602101661879	1
0	2344	738.619343254111	0
0	2350	739.804914636099	1
0	2351	739.826292275481	0
0	2365	744.530536230464	1
0	2367	745.746879577898	0
0	2381	750.408669493942	1
0	2387	751.470649664533	2
0	2391	752.425883902333	3
0	2392	752.754125761492	2
0	2398	753.234511647341	3
0	2400	753.808157256519	2
0	2411	755.346394230111	1
0	2417	755.497419556018	0
0	2433	758.704134523352	1
0	2434	760.20482102406	0
0	2450	763.900931853082	1
0	2452	764.234723923328	2
0	2454	764.437156760597	3
0	2455	764.699678200745	2
0	2462	767.349248292574	3
0	2463	767.587214745187	2
0	2470	769.515138267228	3
0	2471	771.59338699455	2
0	2476	773.409183162678	1
0	2482	773.932925487169	2
0	2485	778.329981465538	1
0	2493	781.121860760583	0
0	2501	783.004887050513	1
0	2502	789.421767299522	0
0	2513	791.237251761126	1
0	2514	792.146545446028	0
0	2540	799.895760463833	1
0	2543	801.995305779417	0
0	2550	802.488041902566	1
0	2551	802.668120347141	0
0	2557	803.38567071669	1
0	2559	804.225362285558	0
0	2590	809.10654810972	1
0	2592	809.948215722655	2
0	2596	811.317689374105	3
0	2597	813.051565083009	2
0	2603	813.204072255906	3
0	2605	816.703112444424	2
0	2611	817.819127309372	3
0	2618	823.144744711154	4
0	2620	823.329902734827	5
0	2623	824.332367413158	4
0	2632	825.995226238922	5
0	2633	826.262005963895	4
0	2639	826.350883688302	5
0	2641	830.898386131871	4
0	2649	831.756791507088	3
0	2654	832.741203353146	2
0	2660	833.448148080476	1
0	2670	837.143215860102	2
0	2672	837.635949349254	3
0	2674	838.354793586228	4
0	2675	839.215909451574	3
0	2682	840.798021425984	2
0	2688	843.804791611486	1
0	2694	844.646211741505	0
0	2702	847.559807050352	1
0	2703	847.903456746646	0
0	2709	849.070661872505	1
0	2712	850.366653353306	0
0	2729	852.352532144181	1
0	2731	852.509813143896	2
0	2732	852.99133649045	1
0	2737	853.553587343424	0
0	2797	865.804061649507	1
0	2800	866.500636822417	0
0	2807	867.340347936297	1
0	2811	869.035917297595	2
0	2812	869.276900492493	1
0	2826	874.342117917002	0
0	2832	874.643825085589	1
0	2833	874.675195026313	0
0	2842	876.165943925965	1
0	2843	876.229310352562	0
0	2852	881.475235815918	1
0	2854	884.298643796359	2
0	2855	884.300388953592	1
0	2860	884.805753568247	0
0	2876	886.128075442165	1
0	2878	887.484841886862	0
0	2899	896.317880445733	1
0	2904	896.843119221915	0
0	2918	898.462677206287	1
0	2920	899.510275568617	2
0	2922	899.921403696698	3
0	2924	900.424231251758	4
0	2925	900.513565575191	3
0	2930	902.016301549782	2
0	2937	903.31801525202	3
0	2939	904.616543619074	2
0	2944	907.453923157561	1
0	2955	909.417045999359	0
0	2975	913.434541011891	1
0	2977	913.626228680266	2
0	2980	915.586370614321	1
0	2986	916.315363126923	2
0	2988	917.368006713345	3
0	2989	917.629424049284	2
0	2996	920.764262712171	1
0	3001	921.095028828192	0
0	3007	922.965364963024	1
0	3009	925.433171130053	0
0	3017	927.409258348473	1
0	3019	929.95978522549	2
0	3021	931.124939159068	3
0	3023	931.407028617438	4
0	3025	931.709174461075	5
0	3026	938.028704488282	4
0	3031	938.694092943072	3
0	3037	939.684868343152	2
0	3043	941.060768305117	1
0	3049	941.412526249632	0
0	3068	943.22814958641	1
0	3073	945.94222778034	2
0	3075	946.216230507469	3
0	3076	946.27281373362	2
0	3084	947.451213579239	3
0	3089	951.85382251959	2
0	3094	952.154807271881	1
0	3102	954.032898333348	0
0	3114	954.393887377258	1
0	3116	954.741748087994	2
0	3118	954.992562377004	3
0	3120	955.202266452413	4
0	3123	955.881990299679	3
0	3128	958.237592291383	2
0	3133	958.239120494698	1
0	3138	958.304396676889	0
0	3157	964.610489992699	1
0	3158	964.643935085455	0
0	3169	966.734960069161	1
0	3175	974.631626830441	2
0	3179	975.791040572804	3
0	3182	976.478389991952	4
0	3184	976.990984335544	5
0	3186	979.194043128055	4
0	3191	979.43637916052	3
0	3200	982.709035961916	2
0	3205	982.997361346027	1
0	3211	983.804444390951	0
0	3227	991.441122508387	1
0	3229	993.747958328768	2
0	3230	993.891268416667	1
0	3235	995.158411958148	0
0	3247	996.402549029699	1
0	3249	996.634642754346	2
0	3250	996.941971040362	1
0	3257	997.868059059159	0
0	3264	999.587743270024	1
0	3268	1004.005184228955	2
0	3270	1005.130807166407	3
0	3272	1005.599290522637	4
0	3274	1006.497348570976	5
0	3275	1007.49275477324	4
0	3280	1008.530794420069	3
0	3286	1010.483360332765	4
0	3287	1012.52329491597	3
0	3293	1013.580473880471	2
0	3298	1014.090576273936	1
0	3302	1014.181892011841	2
0	3308	1020.204756662488	1
0	3315	1021.573040848117	0
0	3347	1026.687366588032	1
0	3348	1028.948224607962	0
0	3363	1031.589658595785	1
0	3369	1032.841434010598	2
0	3377	1039.058600488285	3
0	3379	1039.079917348606	4
0	3380	1039.614628256239	3
0	3387	1043.100204693796	4
0	3389	1043.606687804574	5
0	3390	1044.86936727584	4
0	3396	1045.827207985334	5
0	3397	1045.877290963484	4
0	3403	1046.076270349352	3
0	3409	1046.264586039482	4
0	3411	1048.069935106072	5
0	3414	1049.762953085509	4
0	3422	1051.294894539914	3
0	3427	1054.094637411542	2
0	3432	1055.229817220423	1
0	3441	1057.309835545506	0
0	3447	1058.34946933014	1
0	3449	1060.980177746763	0
0	3456	1062.719977314003	1
0	3458	1065.334111863719	0
0	3464	1067.62855834431	1
0	3468	1071.384855645877	0
0	3479	1072.705891676773	1
0	3483	1074.842126778002	0
0	3490	1075.993912239537	1
0	3492	1076.613649502289	2
0	3493	1078.297369416115	1
0	3499	1078.651771251635	2
0	3503	1081.540471284812	1
0	3508	1083.774358851942	0
0	3526	1090.053780090945	1
0	3527	1091.8762812353	0
0	3534	1092.003121974391	1
0	3536	1092.040799600628	2
0	3538	1092.250216349017	3
0	3540	1092.682294533086	4
0	3544	1095.775035049801	3
0	3551	1096.628725771495	4
0	3552	1100.765510513987	3
0	3560	1102.694333533351	2
0	3568	1105.764209545564	3
0	3571	1113.99968337438	2
0	3577	1115.409309618201	1
0	3583	1115.932973584905	0
0	3590	1116.903252020737	1
0	3592	1118.207994640675	2
0	3594	1118.703715975248	3
0	3596	1119.302978351243	4
0	3597	1119.325673793633	3
0	3604	1121.073397847823	4
0	3606	1121.21831889929	5
0	3607	1121.578500980453	4
0	3613	1123.44427959749	3
0	3620	1125.583242565646	4
0	3621	1125.741767468283	3
0	3628	1128.06716441118	4
0	3630	1128.723033631594	5
0	3632	1129.620363441384	6
0	3635	1133.45855373302	5
0	3645	1135.395873904371	4
0	3653	1136.168883547277	5
0	3656	1138.753962026816	6
0	3659	1142.2155334417	5
0	3664	1142.295679348926	4
0	3669	1143.538814150583	3
0	3674	1147.03790389018	2
0	3679	1147.748952458008	1
0	3684	1148.110428329442	0
0	3692	1156.805103290447	1
0	3696	1160.026215368909	0
0	3722	1169.213625587149	1
0	3723	1169.900154286454	0
0	3740	1175.38426759939	1
0	3741	1176.659324257833	0
0	3751	1178.600049438023	1
0	3753	1179.842192028708	2
0	3755	1179.928552351685	3
0	3760	1182.070366934513	2
0	3765	1182.598050234045	1
0	3772	1183.521196548931	0
0	3790	1189.022890450117	1
0	3791	1189.638955289231	0
0	3801	1201.717134980896	1
0	3802	1202.379665791585	0
0	3814	1206.382082774325	1
0	3815	1206.852450866557	0
0	3821	1207.493174750779	1
0	3824	1208.657115234211	2
0	3825	1209.084806486135	1
0	3830	1209.18497296114	0
0	3859	1217.286221109209	1
0	3861	1220.326153093555	2
0	3873	1224.141810787051	3
0	3877	1225.816643680887	4
0	3878	1226.184056634582	3
0	3883	1228.615230014131	2
0	3888	1228.720098382042	1
0	3893	1229.620869464679	0
0	3913	1233.860328769258	1
0	3917	1236.845817217584	2
0	3918	1236.857475728307	1
0	3923	1237.543993172979	0
0	3944	1247.367861357625	1
0	3945	1248.100421985919	0
0	3959	1253.860663263435	1
0	3960	1254.217180150124	0
0	3972	1256.393915968221	1
0	3974	1256.839307400166	2
0	3978	1258.153512587443	1
0	3984	1259.860861983385	0
0	3991	1262.6697825932	1
0	3994	1263.97264742256	2
0	3995	1264.438291808794	1
0	4001	1266.434846111909	0
0	4007	1270.05635088804	1
0	4008	1270.162177008316	0
0	4014	1270.205876805029	1
0	4020	1274.789992810836	0
0	4033	1275.852936412281	1
0	4034	1276.212558317759	0
0	4043	1278.64471744403	1
0	4044	1278.966366257772	0
0	4051	1280.336321907316	1
0	4052	1281.496949054729	0
0	4061	1283.292166065468	1
0	4062	1283.365079698674	0
0	4070	1284.642196986065	1
0	4071	1288.699302166898	0
0	4077	1288.753698185116	1
0	4079	1290.252535906665	2
0	4081	1290.909646970789	1
0	4086	1291.855182855185	0
0	4144	1307.153603512728	1
0	4148	1308.012501355665	2
0	4152	1312.639168321421	3
0	4154	1312.842235724418	4
0	4156	1313.791720681363	5
0	4158	1314.221413985607	6
0	4160	1314.405295661847	7
0	4162	1314.981579240372	8
0	4165	1321.463856122886	7
0	4170	1322.141106478638	6
0	4176	1322.856388853968	7
0	4177	1323.333020408482	6
0	4187	1326.192971806873	5
0	4198	1332.881529443634	4
0	4203	1333.532191710966	3
0	4212	1336.31654088503	2
0	4220	1337.08775996373	1
0	4225	1337.66447891374	0
0	4253	1347.760661651768	1
0	4257	1350.751785032199	2
0	4258	1350.776261194999	1
0	4263	1351.022104507839	0
0	4270	1353.840077208137	1
0	4272	1353.875852712673	2
0	4275	1356.331148307713	3
0	4277	1360.453028384086	2
0	4284	1362.555027404321	3
0	4285	1362.833873794281	2
0	4291	1365.39447014298	1
0	4296	1365.432158673425	0
0	4340	1376.636342667637	1
0	4343	1381.294950877617	0
0	4366	1389.180377460247	1
0	4370	1394.724068565062	0
0	4388	1399.594779822625	1
0	4389	1400.399557459125	0
0	4400	1401.96287423136	1
0	4402	1409.498750473237	0
0	4409	1412.578187473109	1
0	4410	1413.178471791665	0
0	4421	1415.781063270427	1
0	4423	1415.967378706748	2
0	4427	1419.919781765857	3
0	4432	1420.547261021149	2
0	4438	1421.772878571867	1
0	4443	1422.07683733537	0
0	4451	1423.495920759978	1
0	4454	1427.691285409993	2
0	4457	1428.073456134594	3
0	4461	1430.992062112664	2
0	4467	1433.486490290953	3
0	4469	1434.138212248408	4
0	4471	1436.81703528408	3
0	4480	1440.034082594864	2
0	4486	1440.062878588343	3
0	4493	1444.804711486561	4
0	4494	1444.825117470923	3
0	4499	1445.933303574954	2
0	4504	1449.633463797685	1
0	4512	1449.861860985106	2
0	4514	1450.193041565042	1
0	4519	1450.689059841516	0
0	4531	1452.753193991929	1
0	4533	1453.053911266344	2
0	4536	1454.122860416052	1
0	4543	1454.76883716613	2
0	4545	1456.442936413727	3
0	4546	1457.88136529534	2
0	4554	1461.850401660964	1
0	4559	1462.842162232186	0
0	4565	1463.960258076553	1
0	4567	1464.537717226953	2
0	4570	1465.747854920825	1
0	4575	1467.894950633207	0
0	4609	1477.490612179006	1
0	4611	1478.683275224518	2
0	4613	1478.843240839119	3
0	4618	1483.527350379416	2
0	4625	1484.235306341854	3
0	4626	1486.896824783892	2
0	4633	1487.768299059307	1
0	4640	1491.514029256817	0
0	4647	1492.002868355682	1
0	4648	1492.338856425822	0
0	4654	1492.567169163401	1
0	4656	1494.840922839321	0
0	4668	1499.44898675851	1
0	4669	1499.877209247014	0
0	4678	1501.859679865735	1
0	4683	1508.779564988447	2
0	4684	1510.217751226095	1
0	4693	1510.901138018691	2
0	4694	1511.820135342809	1
0	4701	1513.086847953342	2
0	4703	1513.537262772757	3
0	4705	1513.772013874516	4
0	4706	1514.280108743713	3
0	4712	1517.725487316439	2
0	4718	1517.981761753685	3
0	4719	1518.090484211142	2
0	4725	1519.25452083851	1
0	4734	1519.913737002696	2
0	4736	1520.389881712988	3
0	4738	1525.163692844673	4
0	4739	1525.340338216584	3
0	4746	1526.023078338815	4
0	4749	1529.658428920435	3
0	4755	1529.704530985731	4
0	4756	1530.247082792407	3
0	4763	1534.405972484413	2
0	4768	1534.469873691868	1
0	4774	1535.315108294944	0
0	4794	1538.53768859379	1
0	4796	1539.35749337258	2
0	4798	1539.499957879488	3
0	4803	1541.645388136314	4
0	4806	1545.160039150171	3
0	4811	1545.428706788183	2
0	4818	1549.11840676031	1
0	4829	1552.877585103218	0
0	4840	1553.293605335723	1
0	4842	1554.389586225304	0
0	4870	1564.909133173084	1
0	4875	1566.707525861521	0
0	4881	1566.955568310825	1
0	4882	1567.126521586156	0
0	4891	1570.805672566595	1
0	4895	1572.127773261387	2
0	4899	1574.022335340133	3
0	4900	1575.736775128374	2
0	4906	1577.778897898295	1
0	4912	1579.076852541478	0
0	4921	1580.839027377115	1
0	4923	1581.007762193454	2
0	4925	1581.141062460068	3
0	4927	1581.16009771329	4
0	4931	1582.279784269759	5
0	4936	1583.936362476491	6
0	4941	1584.707817884879	5
0	4946	1587.241391601194	4
0	4958	1589.771233824623	5
0	4960	1590.298486315389	6
0	4965	1592.529340465614	5
0	4971	1593.635901882479	6
0	4973	1594.428417112229	5
0	4981	1598.787042747602	4
0	4986	1598.810541750871	3
0	4991	1600.04742277576	2
0	4997	1601.138317006971	1
0	5002	1601.939628451031	0
0	5014	1602.873343343242	1
0	5017	1603.78669278409	2
0	5019	1604.036727552467	1
0	5028	1606.748560811316	2
0	5032	1607.710162382937	1
0	5042	1613.693901552123	0
0	5064	1617.2188712933	1
0	5065	1617.53244759414	0
0	5072	1619.185141424742	1
0	5073	1619.245742237448	0
0	5079	1619.348500544044	1
0	5081	1620.012185323777	2
0	5083	1620.347662293224	3
0	5088	1623.169705230489	2
0	5094	1626.470609747434	1
0	5101	1630.243845534507	0
0	5133	1635.334137629154	1
0	5136	1636.461033304008	0
0	5146	1639.449463754655	1
0	5150	1642.272328795742	2
0	5153	1643.781569045167	1
0	5158	1643.851343401653	0
0	5169	1644.12080103147	1
0	5170	1644.740443486038	0
0	5178	1648.945145718435	1
0	5180	1651.120734654974	0
0	5190	1652.83534572473	1
0	5192	1654.147548545834	2
0	5194	1654.932586093547	3
0	5199	1656.319761250174	2
0	5205	1656.355738632901	3
0	5207	1656.663800729549	4
0	5209	1658.168049950544	3
0	5215	1658.597819134528	4
0	5219	1659.973757700172	3
0	5224	1663.320944266414	2
0	5231	1666.683698252869	1
0	5236	1666.920723514225	0
0	5242	1668.40722374679	1
0	5244	1671.135900907025	0
0	5250	1672.630489754676	1
0	5252	1674.967497642445	0
0	5258	1675.131534810711	1
0	5261	1678.144249785823	0
0	5281	1683.264432354109	1
0	5284	1685.514138940329	0
0	5291	1686.47225140209	1
0	5293	1687.457968598825	2
0	5294	1687.574788515272	1
0	5306	1695.752849144035	2
0	5307	1696.954333842198	1
0	5312	1699.106754556798	0
0	5333	1710.954948887342	1
0	5334	1711.46867660254	0
0	5343	1718.613623953087	1
0	5344	1719.317810263465	0
0	5350	1719.395989149132	1
0	5352	1719.563423749825	0
0	5365	1722.24774486266	1
0	5369	1726.721263221821	0
0	5385	1729.687735675313	1
0	5386	1732.382452356224	0
0	5394	1734.473452936588	1
0	5396	1734.512755481648	2
0	5400	1735.415173947946	3
0	5403	1736.196890943886	2
0	5409	1737.748060891855	1
0	5420	1740.148239774431	2
0	5421	1740.488935854822	1
0	5430	1741.699262734681	2
0	5432	1742.090834357529	3
0	5435	1742.890826607271	4
0	5437	1744.943394809034	5
0	5439	1747.77947408899	6
0	5440	1751.027372469903	5
0	5446	1751.603731611059	6
0	5448	1752.175280583616	7
0	5449	1752.692392607042	6
0	5455	1752.886806300553	5
0	5460	1753.264654285602	4
0	5467	1754.246483648562	3
0	5472	1756.912922065395	2
0	5480	1757.805183210707	3
0	5487	1761.552908230172	4
0	5488	1761.60719614248	3
0	5494	1761.734753308071	4
0	5497	1765.401760876046	5
0	5499	1766.421338101933	6
0	5500	1767.792085074429	5
0	5505	1768.702710597905	4
0	5511	1768.981650354765	3
0	5516	1771.54747013398	2
0	5522	1771.896797157944	1
0	5527	1772.14730106724	0
0	5534	1773.603097471457	1
0	5536	1773.618567448758	2
0	5538	1776.049874981822	1
0	5544	1776.325024414282	0
0	5571	1786.250493870815	1
0	5573	1786.674543367796	0
0	5580	1787.711758594099	1
0	5583	1791.706432967971	0
0	5590	1792.544442908064	1
0	5591	1793.304484296609	0
0	5598	1793.894657737217	1
0	5600	1795.081888290532	2
0	5602	1796.593673897181	3
0	5603	1799.645550823596	2
0	5609	1800.112023244739	3
0	5613	1801.182733965959	4
0	5615	1801.762060268791	5
0	5616	1802.292282236806	4
0	5622	1802.318017316646	5
0	5630	1805.747773589844	6
0	5631	1807.8410473711	5
0	5637	1810.365467650142	4
0	5644	1812.217339414278	3
0	5650	1814.53739152134	2
0	5656	1815.643016919408	1
0	5662	1816.124219121027	0
0	5668	1816.258435954458	1
0	5670	1817.5303518288	0
0	5706	1829.545163996463	1
0	5708	1831.308403056794	2
0	5711	1835.418873744026	1
0	5717	1835.443057967674	2
0	5723	1837.424492596583	1
0	5728	1837.663772020125	0
0	5744	1842.501214625656	1
0	5747	1843.983347358815	2
0	5748	1844.71557962772	1
0	5755	1847.201329424308	2
0	5758	1847.908626503737	3
0	5759	1848.48049077117	2
0	5769	1852.604610063142	3
0	5771	1854.595457674675	4
0	5772	1855.007180692854	3
0	5779	1855.150754823814	4
0	5781	1856.335279590023	5
0	5783	1856.818954829623	6
0	5786	1863.082319198727	5
0	5794	1867.117246036537	4
0	5804	1870.053653950891	3
0	5813	1872.542774132991	4
0	5818	1875.448457968748	5
0	5819	1876.005904251197	4
0	5824	1876.344174551293	3
0	5836	1879.283356172871	4
0	5838	1881.130565859292	3
0	5843	1881.519217178787	2
0	5853	1883.893835421632	1
0	5859	1884.943147132597	0
0	5903	1891.634823476058	1
0	5907	1894.113320816403	2
0	5910	1896.055565184677	1
0	5920	1899.295382714055	2
0	5925	1900.092410308219	3
0	5927	1900.579639239744	4
0	5931	1904.025866487468	5
0	5934	1905.188418598895	4
0	5940	1905.905925017261	3
0	5946	1909.866677477563	2
0	5953	1911.687984325412	3
0	5956	1911.816115372819	2
0	5961	1912.177630359285	1
0	5966	1913.668867655331	0
0	6006	1928.119020566901	1
0	6011	1930.0417787262	0
0	6034	1942.838608263441	1
0	6036	1943.327062528889	2
0	6039	1945.009117753809	1
0	6045	1945.068757771791	2
0	6047	1946.940440020194	1
0	6053	1948.257000041084	2
0	6055	1950.323310677575	1
0	6061	1950.680862899474	0
0	6067	1951.007501013597	1
0	6069	1951.159060967018	2
0	6072	1953.260635149167	3
0	6073	1953.554861291759	2
0	6080	1953.969070013727	1
0	6085	1954.387677018524	0
0	6106	1959.007566850786	1
0	6109	1959.709608441708	0
0	6118	1964.394899731159	1
0	6121	1967.641524567921	0
0	6136	1972.424919671956	1
0	6140	1973.241905260771	2
0	6143	1973.568892605659	1
0	6150	1975.004260819101	2
0	6153	1975.57110533552	1
0	6161	1981.022202632515	0
0	6167	1982.761159478093	1
0	6168	1983.190792296857	0
0	6174	1983.662296474989	1
0	6177	1985.41431837337	2
0	6182	1990.801785989573	3
0	6183	1991.649892889874	2
0	6189	1992.659809089137	1
0	6195	1992.927131866956	2
0	6196	1993.128069156168	1
0	6201	1993.594356976884	0
0	6212	1995.77052408533	1
0	6217	2002.640001238598	2
0	6218	2003.61772877555	1
0	6224	2004.683966238349	0
0	6237	2007.568945339098	1
0	6245	2020.223290306594	0
0	6260	2025.652741147528	1
0	6262	2026.632639801204	2
0	6264	2028.757623032719	3
0	6268	2029.245951687827	4
0	6280	2034.396420583493	5
0	6281	2036.490831344537	4
0	6289	2038.274531775515	3
0	6298	2040.924013413874	2
0	6305	2041.820436707191	1
0	6310	2042.902836487295	0
0	6343	2046.76493335209	1
0	6345	2047.556730184161	2
0	6346	2047.634791941399	1
0	6352	2050.722745965788	0
0	6363	2053.781000726593	1
0	6365	2054.38855989366	2
0	6368	2054.704881575144	1
0	6374	2054.724118087525	2
0	6376	2055.717037577278	1
0	6383	2057.827654402879	2
0	6384	2057.895634845798	1
0	6398	2062.125803381472	2
0	6402	2065.500494569245	3
0	6404	2066.258354489609	2
0	6409	2066.543777362196	1
0	6414	2066.823692868976	0
0	6420	2066.896740533827	1
0	6424	2068.293436619835	0
0	6431	2070.894388102792	1
0	6433	2071.174496877644	2
0	6437	2075.376075553567	3
0	6439	2076.167397827766	2
0	6444	2076.445288130188	1
0	6453	2078.415507593754	0
0	6459	2079.632111864016	1
0	6461	2080.298497902525	0
0	6472	2081.582032686437	1
0	6474	2082.845084253554	0
0	6480	2083.752587295326	1
0	6485	2084.760668820528	2
0	6491	2089.839523543719	1
0	6499	2093.444990520184	0
0	6511	2094.883070701614	1
0	6514	2095.86438301292	2
0	6515	2095.887338839483	1
0	6521	2096.033284819104	2
0	6523	2100.974649281031	1
0	6529	2108.130702005441	2
0	6535	2111.645360887272	3
0	6537	2111.943185840577	4
0	6541	2113.544862612195	5
0	6544	2117.398827696688	4
0	6549	2117.72208330724	3
0	6558	2122.672603588102	4
0	6561	2125.273701427297	3
0	6566	2126.634068334601	2
0	6571	2126.646741249219	1
0	6576	2127.390345115337	0
0	6588	2130.286575625833	1
0	6590	2131.065870026654	0
0	6596	2132.783224921605	1
0	6597	2133.104132467563	0
0	6616	2138.259661737643	1
0	6622	2140.08453407135	2
0	6624	2145.092340196613	3
0	6626	2145.723572072889	2
0	6631	2145.850933072631	1
0	6636	2147.050003141413	0
0	6646	2149.940593173754	1
0	6647	2150.694090786407	0
0	6653	2151.161690328446	1
0	6657	2154.559182496437	2
0	6660	2155.592744450599	3
0	6661	2156.466759261991	2
0	6670	2159.078777238024	3
0	6671	2159.525738702014	2
0	6678	2162.385348026266	1
0	6683	2163.277972407222	0
0	6706	2171.088693535198	1
0	6709	2173.347415387856	0
0	6716	2174.146682233172	1
0	6717	2176.31111194902	0
0	6728	2176.827789787596	1
0	6729	2177.422480398014	0
0	6736	2178.905648158676	1
0	6737	2179.248373806854	0
0	6744	2179.777222751225	1
0	6747	2180.864573367863	2
0	6748	2181.808268995944	1
0	6753	2182.168795752714	0
0	6760	2184.336939843932	1
0	6762	2187.725679519899	0
0	6791	2196.830062584785	1
0	6793	2197.308749032573	2
0	6794	2197.777509478511	1
0	6801	2201.515786937603	2
0	6803	2202.071018360701	1
0	6808	2202.367960307079	0
0	6818	2204.478970977612	1
0	6819	2207.233428040843	0
0	6825	2207.247166155603	1
0	6827	2207.382731843684	2
0	6828	2208.179200064158	1
0	6834	2208.226902641356	2
0	6835	2208.429345270076	1
0	6848	2211.616736919739	2
0	6851	2212.340346668455	3
0	6853	2216.268120626346	4
0	6856	2219.605547311871	3
0	6862	2221.254572181301	4
0	6864	2223.680699559404	5
0	6865	2223.795138575871	4
0	6871	2224.137507216348	3
0	6876	2224.139585708832	2
0	6881	2224.30603911069	1
0	6892	2227.378450638531	0
0	6905	2234.644611104066	1
0	6909	2236.023970032187	2
0	6914	2242.01436986557	3
0	6918	2244.619135764011	4
0	6919	2245.841663438031	3
0	6927	2248.04284612375	4
0	6932	2253.080443490379	3
0	6938	2253.709755554819	4
0	6940	2253.776675259908	5
0	6942	2254.110908737928	4
0	6948	2254.201694565377	5
0	6951	2254.910975270796	4
0	6958	2255.620344428521	5
0	6960	2255.660192653558	6
0	6963	2258.568983880339	7
0	6966	2259.585616496292	8
0	6967	2261.560061164931	7
0	6972	2261.849472412915	6
0	6980	2263.301999247167	7
0	6981	2264.225631483327	6
0	6987	2264.779688284487	7
0	6990	2268.142192518486	8
0	6991	2270.995227523009	7
0	6997	2271.30372388405	8
0	7000	2271.93489557762	9
0	7002	2273.772716521902	10
0	7003	2274.831668299266	9
0	7009	2276.917008655676	8
0	7015	2277.527779183598	7
0	7022	2278.844344106975	6
0	7028	2279.323388704814	7
0	7029	2280.564241164918	6
0	7034	2281.583049848222	5
0	7039	2281.612954088713	4
0	7047	2283.545644494611	3
0	7052	2283.972067260533	2
0	7059	2285.48174239062	1
0	7067	2288.88818708534	0
0	7108	2294.495213512362	1
0	7109	2294.636576173589	0
0	7119	2294.748444901414	1
0	7121	2298.65675800394	0
0	7132	2301.397495805801	1
0	7134	2301.908501743736	2
0	7137	2303.589292759846	1
0	7143	2303.686541347134	2
0	7144	2304.397380336679	1
0	7149	2304.631320273397	0
0	7162	2311.295758925376	1
0	7165	2312.592184241836	0
0	7195	2323.08812538153	1
0	7197	2323.499243907642	2
0	7200	2324.397680135413	1
0	7207	2327.573822869797	0
0	7235	2331.857597398147	1
0	7237	2335.056241415073	2
0	7240	2337.774375036011	1
0	7251	2338.1166033744	2
0	7253	2338.532919638876	3
0	7255	2338.879142060184	4
0	7256	2339.998439249695	3
0	7261	2340.43498780425	2
0	7267	2340.94188133643	3
0	7269	2342.318265882911	2
0	7277	2343.585258513202	1
0	7283	2343.720616049345	2
0	7287	2347.337590792426	3
0	7291	2348.816478553814	2
0	7299	2349.093735969667	3
0	7304	2353.531283745639	4
0	7305	2353.714162630744	3
0	7310	2354.715750610269	2
0	7318	2357.211768148406	1
0	7325	2358.378485807086	2
0	7328	2360.476792917621	1
0	7337	2362.432303686279	2
0	7339	2363.625705620678	3
0	7340	2364.157281982037	2
0	7346	2364.170728725558	3
0	7348	2364.764631029662	4
0	7353	2367.195388984086	3
0	7359	2369.195463905017	4
0	7362	2372.22924417904	5
0	7363	2372.41911897343	4
0	7370	2376.421370263412	5
0	7372	2377.723973814787	6
0	7376	2379.072290095652	7
0	7377	2379.715297774042	6
0	7386	2380.576423235815	7
0	7388	2381.841768094259	8
0	7391	2384.318674549014	9
0	7393	2386.149403028766	10
0	7394	2386.502187921999	9
0	7400	2387.035066948681	10
0	7401	2387.080658411722	9
0	7406	2387.209549116757	8
0	7412	2388.67973009076	7
0	7418	2390.680441148584	6
0	7423	2393.626135011177	5
0	7429	2393.63414194335	6
0	7432	2395.065153247321	5
0	7440	2396.776403938556	4
0	7446	2397.096929257152	5
0	7447	2397.726650526747	4
0	7456	2400.316693806647	5
0	7458	2402.576469478073	4
0	7465	2404.77027329016	3
0	7471	2405.493649872737	4
0	7472	2406.297472078725	3
0	7478	2407.255448936849	4
0	7480	2408.285493153671	3
0	7486	2409.222558516101	2
0	7491	2413.71974167322	1
0	7498	2414.517782401956	0
0	7551	2424.425380009685	1
0	7553	2426.082722269206	2
0	7555	2429.138340300618	3
0	7556	2430.735699321474	2
0	7561	2431.632576982727	1
0	7567	2431.758338407247	2
0	7571	2433.805045463382	3
0	7573	2434.240972471361	4
0	7574	2435.259627343278	3
0	7579	2435.493801455136	2
0	7584	2436.415435967832	1
0	7592	2437.789183565751	0
0	7598	2438.880410352366	1
0	7601	2440.066324390584	2
0	7602	2440.675750110145	1
0	7608	2441.093933493292	2
0	7612	2444.293396685894	1
0	7617	2446.954063463868	0
0	7624	2449.371971398102	1
0	7629	2451.389796196455	0
0	7636	2452.209438094906	1
0	7639	2452.856756712431	2
0	7641	2453.271427551949	1
0	7648	2454.667053402742	0
0	7656	2455.287838813096	1
0	7657	2456.034905957085	0
0	7676	2463.816259581394	1
0	7678	2465.865035586113	0
0	7684	2466.243332857136	1
0	7686	2466.483081987115	2
0	7687	2468.273055695975	1
0	7693	2469.637664234442	0
0	7699	2469.67903337014	1
0	7702	2471.162560053879	0
0	7715	2472.780819762023	1
0	7722	2478.260617569193	0
0	7728	2479.124736874504	1
0	7731	2479.620940925119	2
0	7733	2479.796265671788	3
0	7734	2480.051867757213	2
0	7744	2485.158869987513	3
0	7746	2485.443899637176	4
0	7748	2487.856069591803	5
0	7750	2487.899414636097	6
0	7751	2488.842089905487	5
0	7756	2488.911943467225	4
0	7761	2489.773948313491	3
0	7766	2490.311496891086	2
0	7771	2490.985018291243	1
0	7777	2492.59952291784	0
0	7812	2498.574085530298	1
0	7813	2505.765142806788	0
0	7826	2510.540730278117	1
0	7827	2512.843131348919	0
0	7841	2515.017522981475	1
0	7843	2515.578294721043	0
0	7867	2521.441411620135	1
0	7870	2524.527899747906	0
0	7893	2527.035565920346	1
0	7895	2527.723750752113	2
0	7896	2528.977027059681	1
0	7902	2529.339040469489	2
0	7906	2532.06120742268	1
0	7913	2533.652970117317	0
0	7949	2545.57725575763	1
0	7950	2545.895696445579	0
0	7959	2548.520007324585	1
0	7963	2550.934043304542	2
0	7967	2553.270039950421	1
0	7973	2553.486354731479	2
0	7975	2553.980393215042	1
0	7981	2554.277447599363	0
0	7997	2556.523223576253	1
0	7998	2556.558558170801	0
0	8007	2559.049336493772	1
0	8013	2564.595707982585	2
0	8014	2565.593546616613	1
0	8020	2566.058392574941	2
0	8021	2567.319383172832	1
0	8030	2570.214272071558	2
0	8031	2570.720203075207	1
0	8047	2594.254911960796	0
0	8056	2596.076936268137	1
0	8062	2596.66457926111	2
0	8066	2597.18291083983	3
0	8068	2597.600636646175	4
0	8070	2598.25356766275	5
0	8072	2598.379375275951	6
0	8073	2598.756525425654	5
0	8078	2599.62733945321	4
0	8085	2601.752344110598	3
0	8091	2601.983310152646	4
0	8093	2602.378623557703	3
0	8099	2602.956403382712	2
0	8105	2603.290255428593	1
0	8112	2604.025581965446	0
0	8145	2610.03652024187	1
0	8146	2611.693431300123	0
0	8158	2615.264379085716	1
0	8159	2615.817426162137	0
0	8168	2616.826432066056	1
0	8172	2617.500389596374	0
0	8190	2621.566924812027	1
0	8196	2626.707274710054	2
0	8198	2629.075060604528	1
0	8203	2629.456463854757	0
0	8228	2640.16097106243	1
0	8230	2643.467823092149	0
0	8243	2646.981964988061	1
0	8245	2648.530943129898	0
0	8251	2648.569717330318	1
0	8253	2648.736969522085	2
0	8255	2649.815194443286	1
0	8260	2650.828578085381	0
0	8280	2662.039604411199	1
0	8282	2663.51662770862	2
0	8284	2664.953446292049	3
0	8286	2667.370781646932	4
0	8288	2668.092022866713	5
0	8292	2671.464900186744	6
0	8296	2677.265471125803	7
0	8297	2678.151236866166	6
0	8304	2678.406247575613	7
0	8306	2682.459040130455	6
0	8311	2682.889870163765	5
0	8317	2683.415907791474	6
0	8322	2685.588445038106	5
0	8328	2685.850821930014	6
0	8330	2685.979451183869	7
0	8332	2686.435933755486	8
0	8333	2686.574414567685	7
0	8339	2687.250933234692	8
0	8341	2687.617516656738	9
0	8342	2687.93975115183	8
0	8347	2690.742966791405	7
0	8355	2693.198224614572	8
0	8360	2695.982439592157	9
0	8361	2696.890403571925	8
0	8367	2696.942608331754	9
0	8369	2697.628847383587	8
0	8375	2698.125013348402	7
0	8386	2701.706281314723	8
0	8387	2702.137823502084	7
0	8392	2702.714469123419	6
0	8398	2702.801255710796	5
0	8404	2703.317768074757	6
0	8406	2704.650698751425	5
0	8411	2704.864525041872	4
0	8417	2705.341863366221	5
0	8420	2706.421692247405	6
0	8422	2708.155936824824	5
0	8427	2711.654383531601	4
0	8432	2711.95781227614	3
0	8436	2712.549849784933	4
0	8443	2715.982661339965	5
0	8447	2721.038766097767	6
0	8448	2722.824949097059	5
0	8454	2724.813060130348	6
0	8455	2725.556733137868	5
0	8462	2732.102930461514	6
0	8463	2732.404717631473	5
0	8468	2732.502051534224	4
0	8474	2734.252892545261	5
0	8477	2736.834892343125	6
0	8480	2737.198663926937	5
0	8492	2742.776798849452	4
0	8498	2744.777628384767	3
0	8503	2745.108232195818	2
0	8508	2745.1669589885	1
0	8513	2745.329672464257	0
0	8528	2749.933585459027	1
0	8530	2750.405658662232	2
0	8532	2750.437022158241	3
0	8534	2752.265842246458	4
0	8536	2753.590046477942	3
0	8541	2754.17985776089	2
0	8546	2754.563594002185	1
0	8554	2755.82262181093	2
0	8556	2755.995871702751	3
0	8558	2757.04092142279	2
0	8563	2758.158797889816	1
0	8569	2758.79899349208	2
0	8571	2760.286193032836	3
0	8573	2762.189854208025	2
0	8578	2763.751761102546	1
0	8587	2764.60485566793	2
0	8588	2765.163022409984	1
0	8594	2765.548393749093	0
0	8600	2767.960514179629	1
0	8602	2769.660108290126	2
0	8606	2772.431689729437	3
0	8610	2774.747459321762	2
0	8615	2776.27442563369	1
0	8622	2776.800118437608	2
0	8627	2781.168664244018	3
0	8632	2782.816029038456	4
0	8633	2783.0307392474	3
0	8638	2783.223252939946	2
0	8644	2783.313989903441	3
0	8645	2784.536131332535	2
0	8652	2786.15524379136	3
0	8654	2786.70489619114	4
0	8656	2786.86058226416	5
0	8658	2787.09021244956	6
0	8660	2787.498956997402	7
0	8664	2791.012372083083	6
0	8670	2794.720960776462	5
0	8675	2795.437510169141	4
0	8682	2796.914501840666	5
0	8683	2797.108844448869	4
0	8688	2799.262408597111	3
0	8695	2799.465198252348	4
0	8697	2800.007257071642	5
0	8699	2800.10830524381	6
0	8709	2805.764135284197	7
0	8710	2807.440272980225	6
0	8719	2810.561800746568	7
0	8720	2812.763653708025	6
0	8725	2813.778893410414	5
0	8731	2815.261852403256	4
0	8737	2816.516933585863	5
0	8739	2816.555873031075	6
0	8743	2817.897355909258	7
0	8746	2820.132362941911	6
0	8752	2823.995363438998	5
0	8760	2825.224417850068	4
0	8767	2829.265081826776	5
0	8771	2831.371691520869	6
0	8772	2833.656813620295	5
0	8778	2834.521664243445	6
0	8780	2837.71062849811	5
0	8785	2837.927363211941	4
0	8791	2838.207549829173	3
0	8797	2838.563717989088	4
0	8800	2839.370087957809	3
0	8806	2840.808452143568	4
0	8809	2840.967819399282	3
0	8814	2841.010264723185	2
0	8820	2841.200222123631	3
0	8824	2843.008579791845	4
0	8827	2847.030300566399	5
0	8828	2848.202311401029	4
0	8833	2850.807074396743	3
0	8838	2851.013110896322	2
0	8844	2854.022790646826	1
0	8849	2854.220835546032	0
0	8864	2859.253151252775	1
0	8865	2859.355800080153	0
0	8878	2862.045036363891	1
0	8881	2862.880138454102	0
0	8898	2864.521415782087	1
0	8899	2865.191601297381	0
0	8905	2865.198811019665	1
0	8906	2865.962650422068	0
0	8914	2866.397931738499	1
0	8917	2869.811949291904	0
0	8939	2873.132243585643	1
0	8945	2880.425456843179	2
0	8947	2881.194447739458	3
0	8948	2883.316850042448	2
0	8953	2883.438609371659	1
0	8961	2884.963067692634	2
0	8963	2885.3348547519	3
0	8965	2885.960796825682	4
0	8966	2886.604896376173	3
0	8972	2887.861807987511	2
0	8978	2889.159976839131	3
0	8982	2891.090570939121	4
0	8984	2894.247711306069	3
0	8991	2896.168675388868	2
0	9000	2898.361094661697	3
0	9001	2900.33353906257	2
0	9006	2900.464518255342	1
0	9012	2901.071976058388	2
0	9014	2902.063713491352	1
0	9019	2902.689379077245	0
0	9061	2911.345533340438	1
0	9062	2912.443037584884	0
0	9070	2913.939930539773	1
0	9071	2914.170235877423	0
0	9078	2914.645644104053	1
0	9081	2915.742644085721	2
0	9082	2917.357451357868	1
0	9088	2920.379039698394	0
0	9106	2923.943640489245	1
0	9108	2924.196680751556	2
0	9110	2925.797613574388	3
0	9111	2926.210603673141	2
0	9118	2929.198062149573	3
0	9119	2929.742133372157	2
0	9127	2931.15204250752	1
0	9133	2932.248691497326	0
0	9150	2944.58121732779	1
0	9153	2947.92182399415	0
0	9161	2949.02448265693	1
0	9163	2949.360939999027	2
0	9165	2951.330845839513	3
0	9168	2955.896055084004	2
0	9174	2956.393739652252	1
0	9181	2957.76320358807	2
0	9185	2962.825243725051	1
0	9191	2964.057081587652	2
0	9192	2964.745547207591	1
0	9197	2965.570139404286	0
0	9203	2965.756170754029	1
0	9205	2966.872806190805	2
0	9210	2970.28434559567	3
0	9213	2970.87712572187	2
0	9218	2972.367444476641	1
0	9223	2972.717854134646	0
0	9239	2977.610920069752	1
0	9240	2977.729764287511	0
0	9247	2979.609069225959	1
0	9248	2979.610624550263	0
0	9265	2985.267989569754	1
0	9266	2985.738757002808	0
0	9272	2986.02814141434	1
0	9274	2987.212873431173	0
0	9286	2988.050297869948	1
0	9287	2988.754467898587	0
0	9294	2989.340304850899	1
0	9297	2990.547837541621	0
0	9340	3007.726171216945	1
0	9342	3011.747654595884	2
0	9344	3012.756922118107	3
0	9345	3012.886517361097	2
0	9350	3013.668845365247	1
0	9356	3014.798570470661	0
0	9362	3016.205372515747	1
0	9369	3017.658281103823	2
0	9370	3019.770631923068	1
0	9376	3020.508988843568	0
0	9382	3021.463301528286	1
0	9384	3022.288161468461	2
0	9386	3022.831835097426	3
0	9388	3022.981989602809	4
0	9389	3022.998035317031	3
0	9398	3024.910805232986	2
0	9405	3025.24649443818	3
0	9407	3025.524876839795	4
0	9409	3025.537865371109	5
0	9411	3025.682606723568	6
0	9413	3025.846521142897	7
0	9417	3028.027218781691	8
0	9418	3028.219520479906	7
0	9425	3030.27315889174	6
0	9431	3031.35358050318	5
0	9436	3032.048995937927	4
0	9442	3033.232885336191	3
0	9455	3037.107467609262	4
0	9457	3038.708710102661	5
0	9458	3038.79642851191	4
0	9463	3039.49600043371	3
0	9468	3039.528046033407	2
0	9473	3040.054154039925	1
0	9481	3041.915296281559	2
0	9483	3042.592289531893	3
0	9484	3043.218668687607	2
0	9489	3044.94192189878	1
0	9493	3046.427978808465	2
0	9500	3049.83800758117	1
0	9504	3049.959073342086	2
0	9510	3054.744929296065	1
0	9515	3054.789613576612	0
0	9551	3066.57589175968	1
0	9557	3069.640059238599	2
0	9558	3069.727372551951	1
0	9564	3072.951202017277	0
0	9574	3077.512554180085	1
0	9577	3081.944798125514	0
0	9587	3082.83083981876	1
0	9590	3084.466466079893	0
0	9596	3084.638931684987	1
0	9601	3086.613277667047	2
0	9602	3087.229411161381	1
0	9607	3090.047764639153	0
0	9613	3090.306755951345	1
0	9614	3091.200566982602	0
0	9621	3092.641268343594	1
0	9622	3093.250502998683	0
0	9638	3099.372717128452	1
0	9639	3099.720862650447	0
0	9645	3099.784920072377	1
0	9651	3107.068514410532	0
0	9666	3110.052781166263	1
0	9667	3110.649618408133	0
0	9677	3114.635007232555	1
0	9678	3115.022564300675	0
0	9705	3119.341288688808	1
0	9707	3119.759812152697	2
0	9709	3120.444935332603	1
0	9716	3121.179039913241	0
0	9722	3122.039579367742	1
0	9727	3124.777914545669	2
0	9728	3125.095018918873	1
0	9733	3125.297205920303	0
0	9747	3133.851084356773	1
0	9754	3136.070951419044	0
0	9767	3138.288746583663	1
0	9768	3138.418004359593	0
0	9776	3139.00705753065	1
0	9780	3141.165079162123	2
0	9783	3141.933774393631	3
0	9784	3148.340590158244	2
0	9790	3150.700102374251	1
0	9800	3152.932953962654	2
0	9804	3154.393888921327	3
0	9806	3155.851985764851	4
0	9807	3156.403725254947	3
0	9813	3156.993237150364	2
0	9821	3157.622687481882	3
0	9822	3159.834799044976	2
0	9828	3161.832693226136	3
0	9830	3163.170085889421	2
0	9840	3166.001477840153	1
0	9849	3170.157999919437	2
0	9850	3170.952032551649	1
0	9856	3171.708096359717	2
0	9858	3172.258441431861	3
0	9859	3172.811348101286	2
0	9869	3177.310294037906	3
0	9873	3181.761909829201	4
0	9874	3182.058865569674	3
0	9879	3182.267908638401	2
0	9889	3186.581451025157	1
0	9895	3188.751686050567	2
0	9897	3189.96789957686	3
0	9903	3192.42148315205	4
0	9905	3192.802797961179	5
0	9906	3193.974948172316	4
0	9911	3194.657387150378	3
0	9917	3195.817328130072	2
0	9923	3197.848907726969	3
0	9926	3199.38540052673	2
0	9931	3200.854977133068	1
0	9936	3201.606678976679	0
0	9950	3203.738000388665	1
0	9952	3203.820797827922	2
0	9957	3205.088341507176	3
0	9959	3205.930374835303	4
0	9962	3209.783493156302	3
0	9967	3209.846423957502	2
0	9972	3210.362693650784	1
0	9983	3211.420111958294	2
0	9988	3213.176929438437	3
0	9991	3215.894366145683	2
0	9999	3217.994306558219	3
0	10001	3220.271710944347	4
0	10002	3222.717468299795	3
0	10008	3225.052699207938	4
0	10010	3225.436671074121	5
0	10012	3227.294567085555	6
0	10016	3228.073046986868	7
0	10018	3229.648845348364	8
0	10019	3229.849371163184	7
0	10026	3232.505838131618	6
0	10032	3232.550322830613	7
0	10035	3235.458689875875	6
0	10042	3236.834929976255	5
0	10050	3237.596097508799	4
0	10056	3238.072548296778	3
0	10062	3243.087257148079	2
0	10068	3243.38447206472	3
0	10069	3243.674741721273	2
0	10074	3243.681123761298	1
0	10081	3244.155352496912	0
0	10097	3249.65603903118	1
0	10100	3250.388079744488	0
0	10106	3251.089532066042	1
0	10108	3252.308108362306	2
0	10111	3253.518459289009	1
0	10117	3255.037955190644	0
0	10128	3256.947263812022	1
0	10132	3257.469642508048	2
0	10133	3259.410823825578	1
0	10138	3260.82136888271	0
0	10165	3268.25127503622	1
0	10171	3270.479498972958	2
0	10173	3271.048200856194	3
0	10176	3272.83663181423	2
0	10182	3275.018468874158	1
0	10188	3275.712028954705	2
0	10190	3275.894317957465	3
0	10191	3275.944280550751	2
0	10198	3276.949732474155	3
0	10200	3279.662202884974	2
0	10205	3280.948609664524	1
0	10213	3282.035524708637	2
0	10215	3282.926618840976	3
0	10219	3285.825577027655	4
0	10221	3286.113201037124	5
0	10226	3289.232086608199	6
0	10228	3289.916939147567	5
0	10234	3291.270389030624	4
0	10241	3291.822058304258	5
0	10242	3291.891219425205	4
0	10250	3292.783762386556	5
0	10252	3294.16173093607	4
0	10261	3296.484528979368	5
0	10263	3296.533671712179	6
0	10265	3297.461015686381	7
0	10269	3298.132511572912	8
0	10270	3298.579909823929	7
0	10277	3302.745871742289	8
0	10279	3303.624749383143	9
0	10280	3305.766349393585	8
0	10286	3305.865499859704	9
0	10294	3308.22253045037	8
0	10299	3308.505383158753	7
0	10304	3309.030492551748	6
0	10310	3309.205817962346	7
0	10312	3310.300825215256	8
0	10313	3310.442826811433	7
0	10318	3311.406984947641	6
0	10324	3312.281883784048	5
0	10330	3312.498804807437	6
0	10332	3312.598118177053	7
0	10334	3313.84936146147	8
0	10335	3316.007651244952	7
0	10339	3316.109202369481	8
0	10344	3318.763784800913	7
0	10352	3322.565725740652	8
0	10353	3323.365002949819	7
0	10357	3323.789397469314	8
0	10359	3324.552841515617	9
0	10363	3325.306075209294	10
0	10364	3325.521759442264	9
0	10368	3325.915949431397	10
0	10370	3326.495118062209	11
0	10372	3327.235200664382	12
0	10379	3329.315879761232	11
0	10392	3333.231069884255	10
0	10398	3333.574865793208	11
0	10400	3334.019120454377	12
0	10404	3335.123174746293	11
0	10410	3335.990170034343	10
0	10415	3340.168044904031	9
0	10424	3342.137737410563	8
0	10430	3344.649344883019	9
0	10432	3346.888322064484	10
0	10433	3347.329115901341	9
0	10439	3348.03958963138	10
0	10442	3350.857570194617	9
0	10452	3353.063852914774	8
0	10458	3353.941008298112	9
0	10459	3355.584737346142	8
0	10464	3355.937448546287	7
0	10470	3356.392588811996	8
0	10472	3358.939131551202	7
0	10477	3359.052034491224	6
0	10493	3364.763055016238	7
0	10494	3365.236487470876	6
0	10501	3368.110168546168	7
0	10502	3368.673279858835	6
0	10508	3369.305549851264	5
0	10514	3370.514554786819	4
0	10521	3377.240209094252	5
0	10522	3378.103106566922	4
0	10532	3380.623548033705	3
0	10537	3380.965522325701	2
0	10542	3382.390480295541	1
0	10547	3383.6062926759	0
0	10582	3391.802768773673	1
0	10583	3391.97756994344	0
0	10609	3405.096116390544	1
0	10611	3405.53874452579	2
0	10612	3406.976591056811	1
0	10618	3409.975804557459	0
0	10648	3418.907540134439	1
0	10650	3420.349104180329	2
0	10653	3422.808077179783	1
0	10658	3423.04060182621	0
0	10687	3434.834814090816	1
0	10689	3435.129778730201	2
0	10692	3436.430419983585	1
0	10699	3437.990241093362	2
0	10702	3443.110807316401	1
0	10707	3443.34208712594	0
0	10717	3447.130353397577	1
0	10719	3448.223677581948	2
0	10721	3449.62122254719	3
0	10725	3450.880061209399	4
0	10726	3452.092982434043	3
0	10731	3452.594366415137	2
0	10740	3454.279343016158	1
0	10746	3456.949362078451	2
0	10748	3458.879080645273	3
0	10750	3458.96405625386	4
0	10751	3459.27780272339	3
0	10758	3460.676156906541	2
0	10764	3460.954307610353	3
0	10766	3462.139082968395	2
0	10773	3462.420799405068	1
0	10778	3462.625377433189	0
0	10784	3465.048488695293	1
0	10786	3465.415646043287	2
0	10789	3466.321972476687	1
0	10793	3466.389653691726	2
0	10797	3468.951717265878	3
0	10805	3470.529661009933	4
0	10808	3472.089034471905	3
0	10815	3473.50914902427	2
0	10821	3474.348749068736	1
0	10826	3474.449318888302	0
0	10878	3491.338732991163	1
0	10883	3492.618616284023	0
0	10892	3493.561387252624	1
0	10896	3494.593726056568	2
0	10897	3494.942386198982	1
0	10904	3496.318222280198	2
0	10906	3496.94286957868	3
0	10907	3497.45073882304	2
0	10914	3498.621053871205	3
0	10917	3500.19380923888	2
0	10926	3501.599987645155	1
0	10936	3503.959394571305	0
0	10963	3517.453250515665	1
0	10966	3520.298031001513	0
0	10977	3520.869958115686	1
0	10979	3521.012273544955	2
0	10982	3522.491818054888	1
0	10988	3526.565092099698	0
0	11003	3529.864386523702	1
0	11009	3532.463404033937	2
0	11013	3539.724385110109	3
0	11014	3540.317724250593	2
0	11019	3541.296255078273	1
0	11026	3543.257119671741	0
0	11059	3555.223944224816	1
0	11062	3555.500811465461	0
0	11075	3563.230512863952	1
0	11076	3564.220902339503	0
0	11096	3566.334463519905	1
0	11103	3570.11487964357	2
0	11104	3570.456077518325	1
0	11109	3570.550339536863	0
0	11123	3573.136881713727	1
0	11126	3575.836390247072	0
0	11143	3577.149717839492	1
0	11145	3577.343962707332	2
0	11149	3577.857790552715	3
0	11152	3579.090024841841	2
0	11157	3580.787236418637	1
0	11163	3581.224859745328	0
0	11179	3585.318071143003	1
0	11184	3585.994510823128	2
0	11185	3586.672284032035	1
0	11191	3588.727451002174	0
0	11197	3589.101270253451	1
0	11198	3589.442628559655	0
0	11204	3589.957261084009	1
0	11205	3590.174549735316	0
0	11224	3594.196651736262	1
0	11225	3594.200119739162	0
0	11231	3595.197729928679	1
0	11232	3596.207379765699	0
0	11278	3611.638536470506	1
0	11284	3612.598078196441	2
0	11285	3613.246482931539	1
0	11290	3613.246649580405	0
0	11296	3614.178673853589	1
0	11297	3615.2231560199	0
0	11305	3616.327274950957	1
0	11307	3617.282363673589	2
0	11308	3618.483930319286	1
0	11314	3619.016836653725	0
0	11321	3619.538624404617	1
0	11324	3621.17353242984	0
0	11330	3622.10607429244	1
0	11332	3622.792795434918	2
0	11334	3623.188894910629	1
0	11339	3623.754349097414	0
0	11343	3623.791017906535	1
0	11345	3624.824385853734	2
0	11351	3628.992699045613	3
0	11353	3629.890636690687	2
0	11359	3630.133021285671	3
0	11361	3631.719057929211	2
0	11366	3631.763153865881	1
0	11370	3632.165882168097	2
0	11375	3635.680430554737	1
0	11385	3640.289660023013	0
0	11411	3646.031674643882	1
0	11414	3646.605324054169	0
0	11429	3651.298982976968	1
0	11431	3653.049900609374	2
0	11432	3654.26376718691	1
0	11438	3654.569032484057	2
0	11440	3654.949224724752	3
0	11444	3657.603378103279	2
0	11449	3657.618467378498	1
0	11455	3657.803267170555	2
0	11458	3658.949888475981	1
0	11469	3662.839209139481	0
0	11475	3663.59222873334	1
0	11477	3666.004290310258	0
0	11490	3667.64386138541	1
0	11492	3668.637958726881	2
0	11501	3671.546558741408	3
0	11502	3672.924614531784	2
0	11508	3677.021297158993	1
0	11513	3677.086824174068	0
0	11534	3679.363203228809	1
0	11538	3680.442339824207	2
0	11540	3681.280590908008	1
0	11548	3682.69900021647	2
0	11550	3683.067063028868	3
0	11551	3683.911965225165	2
0	11556	3684.197204775946	1
0	11562	3684.96576349334	0
0	11569	3687.026004662655	1
0	11570	3687.94813645035	0
0	11577	3688.54987507186	1
0	11579	3689.163209453151	2
0	11587	3691.971649277074	1
0	11597	3694.773756588501	2
0	11602	3695.368411013025	1
0	11608	3695.983202466129	2
0	11610	3696.106050171441	1
0	11615	3697.714201443792	0
0	11622	3699.010165077454	1
0	11624	3699.013416845948	2
0	11625	3700.404271938005	1
0	11630	3702.086313303943	0
0	11667	3704.293883513766	1
0	11669	3704.548962818138	2
0	11671	3705.526016044861	1
0	11676	3706.004351862368	0
0	11680	3706.446672054712	1
0	11687	3708.521295736195	2
0	11691	3711.299484651386	3
0	11692	3711.579997716749	2
0	11697	3711.658187880873	1
0	11704	3711.998175996104	0
0	11712	3712.774118720063	1
0	11714	3712.837069508135	2
0	11716	3713.321906165163	3
0	11718	3713.868816461258	2
0	11725	3714.586772406858	3
0	11732	3723.542262247729	4
0	11733	3723.873522267778	3
0	11742	3727.62188627065	4
0	11743	3728.638437211189	3
0	11750	3729.841471958259	4
0	11751	3730.271519146624	3
0	11757	3731.004609084551	4
0	11759	3732.756295657504	3
0	11765	3734.840801943347	4
0	11768	3735.75602565512	5
0	11770	3737.248695607567	6
0	11775	3738.939462885158	7
0	11776	3741.578575674695	6
0	11783	3742.682425695365	7
0	11785	3743.15007642182	8
0	11787	3744.115849743374	9
0	11790	3745.459232412438	8
0	11797	3746.145055827838	7
0	11802	3746.427751512611	6
0	11807	3746.471640066533	5
0	11818	3750.376400773269	4
0	11826	3754.38864182641	5
0	11828	3754.418234983531	6
0	11830	3755.13640149628	7
0	11831	3755.148940097323	6
0	11839	3756.308787336131	7
0	11842	3758.533532394414	8
0	11844	3759.780496801688	9
0	11845	3759.801284829718	8
0	11850	3759.922235347999	7
0	11860	3764.748800965821	8
0	11861	3765.011656315338	7
0	11868	3768.314606258461	8
0	11869	3768.697533666038	7
0	11875	3770.628808523668	6
0	11880	3771.342353914929	5
0	11885	3771.718961243743	4
0	11892	3774.074590863545	3
0	11898	3778.969892329581	4
0	11901	3780.27343107753	3
0	11912	3785.680121935828	2
0	11919	3789.879290814411	3
0	11923	3791.969755302575	2
0	11929	3792.097219213635	3
0	11930	3793.978251959359	2
0	11939	3795.345773432517	1
0	11947	3797.597391765393	0
0	11955	3798.283847485776	1
0	11960	3800.509751156318	0
0	11999	3809.38617038137	1
0	12000	3809.976470131051	0
0	12009	3813.215026846741	1
0	12015	3816.756621690922	0
0	12021	3817.00643403566	1
0	12022	3817.353233707069	0
0	12037	3821.174239709711	1
0	12039	3822.191476334456	2
0	12043	3826.936618915602	3
0	12044	3828.080384263912	2
0	12050	3828.322647107125	3
0	12052	3829.863531153159	2
0	12057	3832.766986445246	1
0	12064	3833.634930880624	2
0	12066	3834.217795088258	3
0	12070	3837.801849808612	2
0	12080	3840.141850880337	3
0	12081	3840.572785746626	2
0	12088	3841.74587104294	1
0	12094	3842.72625869375	0
0	12109	3845.266193315989	1
0	12111	3845.328170601448	2
0	12114	3849.372114984947	1
0	12120	3850.668959271208	0
0	12159	3862.141769612463	1
0	12160	3863.928221253218	0
0	12179	3866.987259542514	1
0	12180	3868.042266998212	0
0	12213	3885.048470311768	1
0	12215	3885.138991639371	2
0	12216	3885.357186499282	1
0	12222	3886.45285229808	2
0	12231	3890.36225258993	3
0	12234	3891.699514369391	4
0	12235	3891.894496923747	3
0	12240	3893.266726065798	2
0	12248	3899.50986812451	3
0	12249	3901.406353133235	2
0	12256	3902.815941358932	3
0	12257	3903.104317754063	2
0	12263	3904.034789928113	3
0	12264	3904.476690543545	2
0	12269	3905.498627452668	1
0	12274	3905.866835344014	0
0	12280	3906.068811104711	1
0	12281	3906.814981240764	0
0	12304	3911.07223894298	1
0	12310	3911.85018997638	0
0	12316	3912.14666856731	1
0	12321	3913.962406415463	0
0	12328	3914.474800321782	1
0	12333	3922.270038315095	0
0	12356	3927.604955966094	1
0	12357	3930.591504610238	0
0	12363	3931.258371689602	1
0	12365	3931.272680917886	2
0	12367	3932.50043376147	1
0	12373	3935.743346477193	0
0	12379	3935.899854588162	1
0	12381	3936.387408272702	2
0	12383	3936.95230589811	3
0	12386	3938.720342556832	4
0	12387	3940.662404774927	3
0	12394	3942.724316645904	2
0	12399	3943.045385693423	1
0	12406	3944.214351417342	2
0	12410	3946.103461753571	3
0	12411	3946.977337543341	2
0	12417	3947.754031639955	3
0	12420	3948.989465806692	2
0	12426	3949.33941586523	1
0	12431	3949.421167930105	0
0	12442	3951.127703425723	1
0	12444	3951.681984058964	0
0	12461	3957.984296180513	1
0	12463	3959.225380348908	2
0	12464	3959.678016828822	1
0	12469	3959.939412667825	0
0	12483	3965.574141025849	1
0	12492	3968.9070760954	2
0	12497	3973.674149048148	1
0	12505	3975.529779005302	0
0	12522	3985.589396228685	1
0	12523	3985.92760919398	0
0	12532	3987.733990669564	1
0	12533	3987.981638055867	0
0	12543	3989.602475940802	1
0	12545	3989.932728031188	2
0	12547	3991.162470435238	3
0	12551	3993.684340004484	4
0	12555	3995.298346549823	5
0	12556	3995.754284433278	4
0	12563	3997.008042043393	3
0	12568	3998.046441359195	2
0	12575	3999.854816681294	3
0	12578	4002.572177093876	2
0	12583	4002.905437116113	1
0	12589	4002.977910804999	2
0	12591	4003.545403242254	3
0	12594	4004.085405378009	2
0	12599	4005.349499213936	1
0	12604	4005.522435920924	0
0	12619	4007.937592794546	1
0	12621	4009.599129912472	0
0	12635	4011.921825052021	1
0	12637	4012.065612295749	0
0	12643	4012.384855395715	1
0	12645	4012.725654815954	2
0	12652	4016.838918838373	3
0	12653	4017.140410121498	2
0	12659	4018.245261491058	1
0	12667	4018.728586888332	0
0	12680	4021.456054425284	1
0	12682	4028.128636004089	2
0	12684	4032.342917644426	3
0	12686	4032.774181258178	4
0	12688	4033.03334459754	5
0	12690	4033.080568403817	6
0	12692	4035.242590165997	7
0	12693	4035.780264143208	6
0	12698	4036.985363982303	5
0	12703	4038.388119640795	4
0	12712	4043.026712497521	3
0	12718	4046.399237047925	2
0	12726	4048.486058300691	1
0	12733	4048.734249683367	2
0	12735	4050.777372202756	1
0	12741	4050.861632745945	2
0	12743	4051.41993239154	1
0	12752	4056.290825761254	2
0	12753	4056.421895551906	1
0	12761	4057.131619888084	0
0	12781	4060.907842049832	1
0	12784	4061.9181285219	0
0	12791	4063.105568716896	1
0	12798	4064.116092278002	0
0	12808	4064.913925391285	1
0	12810	4066.113588722155	2
0	12814	4067.782181010442	1
0	12821	4069.103971462226	2
0	12823	4069.187193151535	3
0	12829	4070.350577768078	4
0	12831	4070.453802327157	5
0	12832	4070.660705963784	4
0	12840	4071.998183374662	5
0	12841	4072.311856911681	4
0	12847	4072.41150992197	5
0	12850	4074.320761802279	6
0	12851	4076.019834741929	5
0	12857	4077.626412441488	4
0	12862	4078.911341423218	3
0	12868	4081.622941592894	2
0	12879	4084.053549199069	1
0	12885	4084.799317609075	2
0	12887	4085.778501956418	3
0	12889	4085.898031326606	4
0	12891	4089.878516425799	3
0	12897	4094.320857185159	2
0	12903	4095.544445374775	1
0	12909	4097.504413853189	2
0	12910	4097.652871493566	1
0	12917	4098.542226192829	0
0	12928	4099.914996689635	1
0	12931	4100.04654809707	2
0	12933	4100.330598334398	1
0	12941	4100.606689862114	2
0	12943	4100.99910618961	3
0	12947	4103.62799315555	2
0	12954	4106.552970842859	1
0	12962	4107.066796950564	2
0	12964	4107.222242125222	3
0	12968	4107.992547999109	4
0	12969	4111.422752326445	3
0	12975	4112.358835297445	4
0	12977	4113.293795560378	5
0	12980	4114.872140174072	6
0	12981	4117.399914944231	5
0	12986	4117.455067332226	4
0	12992	4117.731936946268	5
0	12994	4118.693967146321	6
0	12999	4119.798902606985	7
0	13002	4124.135172161133	6
0	13009	4124.548705515925	7
0	13011	4125.068502892986	8
0	13012	4126.738237915542	7
0	13019	4127.376911295631	8
0	13021	4127.846749513724	9
0	13022	4129.899408631102	8
0	13027	4131.929438038847	7
0	13035	4134.329570789554	8
0	13037	4134.841480429505	9
0	13038	4135.659478594298	8
0	13043	4136.560587432189	7
0	13051	4138.995567733141	8
0	13052	4139.235900342554	7
0	13059	4140.016340916116	6
0	13066	4141.839492838383	5
0	13076	4144.44017594903	4
0	13081	4145.862459867866	3
0	13086	4146.42722146619	2
0	13091	4146.608682549067	1
0	13096	4147.108489855759	0
0	13118	4152.040314888881	1
0	13119	4152.319683122266	0
0	13123	4156.911946116171	1
0	13130	4159.944180101155	0
0	13147	4163.489602526596	1
0	13149	4165.03087249229	0
0	13157	4166.040714958782	1
0	13158	4166.230610572951	0
0	13188	4172.389234923854	1
0	13189	4173.600873677849	0
0	13206	4178.783064969481	1
0	13213	4184.587102159026	0
0	13225	4186.295921546694	1
0	13228	4188.196118178955	0
0	13251	4193.977540047823	1
0	13252	4194.273213884073	0
0	13268	4197.96919063062	1
0	13272	4198.699171486561	2
0	13274	4199.050571907722	3
0	13278	4200.604602497064	4
0	13280	4201.294646071242	5
0	13284	4201.805650399602	6
0	13285	4202.590570019405	5
0	13292	4205.039957921549	6
0	13293	4205.248289863958	5
0	13301	4207.079281266587	6
0	13302	4207.19933353944	5
0	13307	4207.218895320814	4
0	13313	4209.202424672563	3
0	13322	4210.992610976623	2
0	13327	4211.753383319195	1
0	13332	4212.38661325218	0
0	13350	4218.634889868584	1
0	13352	4218.700640095365	2
0	13353	4219.138201409788	1
0	13358	4219.983643102264	0
0	13364	4220.687664500316	1
0	13369	4223.62944740595	0
0	13390	4229.697865972592	1
0	13391	4230.245555436851	0
0	13401	4234.903664207257	1
0	13404	4236.903915793485	0
0	13423	4245.226216837981	1
0	13424	4245.796481060683	0
0	13433	4247.568073483148	1
0	13435	4247.707857720278	2
0	13439	4251.993705102465	1
0	13447	4256.819767474038	2
0	13448	4258.015057214554	1
0	13454	4258.9338457582	2
0	13456	4258.941698569887	3
0	13457	4261.107161273832	2
0	13464	4265.296447315741	1
0	13470	4265.413013398144	2
0	13472	4267.334906104733	1
0	13479	4268.920460758384	2
0	13480	4270.210251200436	1
0	13489	4273.895920420205	2
0	13491	4274.312168504674	3
0	13496	4274.910167947293	4
0	13497	4276.142310355398	3
0	13503	4278.98734673772	2
0	13509	4279.199171499949	3
0	13511	4279.701470865747	2
0	13516	4279.757080950354	1
0	13522	4281.53072176754	0
0	13532	4284.682475926922	1
0	13534	4285.803155384644	2
0	13535	4286.795279586885	1
0	13544	4290.495344886594	0
0	13551	4293.526043367453	1
0	13552	4296.115593431087	0
0	13584	4303.461357080196	1
0	13586	4303.689909763027	2
0	13588	4304.470762972454	3
0	13589	4307.559594363973	2
0	13594	4307.66270048363	1
0	13599	4308.614802781766	0
0	13629	4317.841042635508	1
0	13630	4320.586929390635	0
0	13668	4332.232770143114	1
0	13670	4332.50650956333	2
0	13671	4332.882122297502	1
0	13677	4337.481305163219	0
0	13686	4338.517279879548	1
0	13689	4338.645490212972	0
0	13696	4340.181264513138	1
0	13697	4340.420998357067	0
0	13706	4340.778553637866	1
0	13712	4343.297258773167	0
0	13773	4377.512813684558	1
0	13777	4378.180490374439	2
0	13779	4378.730514802284	3
0	13781	4379.840948120375	4
0	13782	4380.229867126169	3
0	13788	4380.940659761095	4
0	13789	4381.13205030559	3
0	13794	4381.451056376894	2
0	13799	4381.937416139347	1
0	13806	4385.324643311507	0
0	13812	4387.263596435737	1
0	13814	4388.350196149844	0
0	13824	4388.682057520051	1
0	13829	4396.226724606923	0
0	13837	4397.312681879052	1
0	13839	4399.392075196235	0
0	13866	4405.331750833439	1
0	13868	4406.188838648721	2
0	13872	4407.836506338563	1
0	13879	4408.463851749004	0
0	13897	4410.01657720608	1
0	13898	4412.331013411707	0
0	13912	4416.151795926421	1
0	13916	4417.036801318306	2
0	13919	4417.768570328508	3
0	13922	4420.702695441379	2
0	13928	4420.865813809124	3
0	13931	4422.41778389121	4
0	13932	4422.81482542369	3
0	13938	4423.709257764445	4
0	13944	4425.102395644041	5
0	13945	4426.576523239998	4
0	13951	4427.067663270471	5
0	13959	4429.276782910002	6
0	13961	4429.873793152054	7
0	13963	4431.231077695928	8
0	13966	4433.464275222546	7
0	13973	4434.844476641481	8
0	13976	4435.253145463147	7
0	13981	4435.811057355271	6
0	13988	4438.499562438895	5
0	13993	4438.514730880892	4
0	14001	4438.721750224147	5
0	14003	4439.067135474086	6
0	14005	4439.298853571642	7
0	14006	4443.945779186962	6
0	14012	4444.591905765145	5
0	14018	4444.858425863248	4
0	14024	4446.159432800455	5
0	14028	4446.936835371766	6
0	14030	4449.070728922818	7
0	14032	4449.49536455785	6
0	14037	4450.179606152174	5
0	14047	4455.070798855377	6
0	14049	4455.851235917316	7
0	14050	4456.357813030613	6
0	14058	4457.476167384558	7
0	14059	4458.192976169631	6
0	14064	4459.053239593038	5
0	14070	4459.586142755966	6
0	14072	4460.353030193004	5
0	14077	4461.082486273262	4
0	14082	4461.454040520125	3
0	14092	4464.401523727347	4
0	14094	4464.659919576636	5
0	14095	4464.798692129959	4
0	14105	4467.161455810794	5
0	14106	4467.244272975942	4
0	14111	4467.669532985327	3
0	14117	4468.350555861029	4
0	14118	4468.905305892121	3
0	14124	4469.088055860593	4
0	14128	4471.065380123368	3
0	14135	4476.967280028889	2
0	14140	4477.087708515483	1
0	14146	4477.490312883499	2
0	14148	4477.611523165917	3
0	14151	4478.607713794749	2
0	14156	4479.223056255707	1
0	14161	4479.325980726116	0
0	14183	4483.800453529983	1
0	14185	4485.252131598612	0
0	14201	4488.356784565435	1
0	14202	4488.570856109088	0
0	14216	4498.863510268869	1
0	14217	4499.390894884715	0
0	14224	4502.950621298118	1
0	14225	4502.971785592671	0
0	14233	4503.791599576026	1
0	14236	4505.344190096518	0
0	14278	4519.430488428932	1
0	14280	4520.203124476668	2
0	14286	4521.280523302405	3
0	14288	4523.23890819956	2
0	14294	4523.465830678793	3
0	14295	4525.247071704318	2
0	14303	4528.454706301252	1
0	14309	4529.149735942847	2
0	14310	4529.318143697192	1
0	14316	4529.475247353837	2
0	14317	4529.667082964051	1
0	14324	4530.663097596286	2
0	14326	4531.993199387621	1
0	14332	4532.179974126949	0
0	14362	4545.591214877318	1
0	14364	4546.682099073874	2
0	14365	4552.836999111564	1
0	14370	4553.304388511335	0
0	14391	4554.944099458825	1
0	14393	4555.809400314817	2
0	14395	4561.332462160164	1
0	14401	4561.670633115395	0
0	14411	4563.094777640445	1
0	14413	4567.863893403207	2
0	14417	4569.743972520048	1
0	14423	4570.833670531468	2
0	14427	4572.742203143915	1
0	14435	4574.317393343768	0
0	14441	4574.462329962951	1
0	14443	4574.850968770262	0
0	14467	4579.799019556227	1
0	14469	4581.592301541865	2
0	14471	4581.59803427269	3
0	14474	4589.438232624074	2
0	14480	4590.103185281465	1
0	14485	4590.333361562991	0
0	14519	4601.106779727983	1
0	14521	4601.226822084064	2
0	14523	4602.370355874126	3
0	14525	4603.342335270853	4
0	14526	4603.926818626674	3
0	14531	4603.94455757149	2
0	14540	4606.229243134949	3
0	14541	4606.932766899819	2
0	14547	4610.054221199401	1
0	14554	4612.777551797261	0
0	14566	4615.895241119528	1
0	14569	4616.735669287419	0
0	14625	4629.69737675133	1
0	14626	4630.301556658392	0
0	14633	4631.436092797305	1
0	14634	4633.833257249781	0
0	14658	4642.581633544357	1
0	14660	4642.899369036545	2
0	14661	4644.053653065712	1
0	14666	4645.842637009778	0
0	14673	4646.487462007657	1
0	14676	4647.481286890212	0
0	14696	4661.106455381633	1
0	14698	4661.224149501764	2
0	14699	4662.520482343119	1
0	14708	4664.62418918429	2
0	14709	4665.438951373799	1
0	14715	4665.893398702865	2
0	14717	4666.228788540987	3
0	14720	4668.179503847903	2
0	14726	4670.029063659429	3
0	14727	4670.112881870209	2
0	14732	4670.416703189786	1
0	14742	4671.547623797436	2
0	14749	4673.822696014817	1
0	14755	4674.715754638471	2
0	14758	4675.867329552836	3
0	14760	4676.163848923543	4
0	14762	4676.463811039993	5
0	14763	4678.986393072487	4
0	14770	4679.536858207072	5
0	14772	4681.104912909715	6
0	14773	4682.256673598787	5
0	14779	4683.846499308347	6
0	14783	4685.861413441302	7
0	14784	4686.382589040002	6
0	14793	4690.477249944082	7
0	14794	4691.928445348135	6
0	14801	4693.970879669451	7
0	14802	4696.586090149168	6
0	14808	4698.260553726232	5
0	14818	4701.564567257512	4
0	14823	4703.229615007157	3
0	14829	4704.600392235243	4
0	14833	4705.954623627724	5
0	14835	4708.847592838377	4
0	14841	4710.057343511605	3
0	14852	4713.862955183017	2
0	14857	4716.36403978024	1
0	14864	4717.810123505193	2
0	14865	4718.190674569803	1
0	14871	4724.151211496085	2
0	14873	4724.796884396387	3
0	14875	4725.644088279414	4
0	14877	4727.124994569469	5
0	14878	4731.463305748863	4
0	14884	4732.393336840854	3
0	14890	4733.394208029035	4
0	14892	4733.99050977849	5
0	14894	4734.465067626159	6
0	14902	4738.379739940726	7
0	14907	4743.075766829434	8
0	14909	4743.799552805479	9
0	14911	4746.52052840489	10
0	14913	4747.088935840217	11
0	14914	4747.101744219528	10
0	14920	4748.85248344289	11
0	14922	4749.576210269765	12
0	14925	4750.48576094152	11
0	14931	4751.48919182759	12
0	14933	4751.738561554144	13
0	14935	4752.428322758732	14
0	14943	4755.364397936734	15
0	14944	4755.63483603319	14
0	14952	4757.36226377933	15
0	14955	4760.537442172137	16
0	14959	4761.77323598674	17
0	14960	4762.354871701915	16
0	14968	4766.613869434537	15
0	14974	4767.581012529402	16
0	14975	4767.99705940883	15
0	14980	4768.128633140144	14
0	14986	4768.650278133694	13
0	14991	4769.238905477619	12
0	14997	4769.265225262573	13
0	14998	4770.051335871016	12
0	15005	4770.259986327936	13
0	15012	4777.266241764142	12
0	15017	4779.367475663936	11
0	15022	4781.457959663726	10
0	15028	4783.078677169523	11
0	15032	4788.273589312171	12
0	15035	4789.38931398383	11
0	15041	4790.395241604151	12
0	15042	4791.88450181926	11
0	15046	4793.085705733303	12
0	15052	4797.065622524019	11
0	15059	4799.13259672358	12
0	15064	4804.038563804025	11
0	15069	4804.07652673875	10
0	15074	4805.973949182287	9
0	15087	4812.684238725689	10
0	15088	4813.398535336552	9
0	15093	4813.545691552923	8
0	15100	4815.937312832886	7
0	15105	4816.508511177927	6
0	15110	4817.10649512038	5
0	15117	4818.113390686261	4
0	15124	4820.28301505685	5
0	15125	4821.902168416556	4
0	15131	4822.899055014647	5
0	15133	4824.425084969667	6
0	15134	4825.397012955148	5
0	15140	4825.69570346125	6
0	15142	4825.802469986016	7
0	15145	4829.147580739946	8
0	15147	4830.326297079993	9
0	15149	4830.74310027437	10
0	15150	4831.637627873719	9
0	15155	4832.075709618965	8
0	15164	4835.358730216718	9
0	15165	4835.457612492206	8
0	15172	4836.532282760716	7
0	15178	4838.382131814119	6
0	15184	4839.906259541411	7
0	15192	4845.683832369397	6
0	15200	4846.900393681826	7
0	15201	4847.099202987083	6
0	15206	4847.792979441438	5
0	15212	4849.617853583094	6
0	15214	4851.629678203451	7
0	15215	4852.645774862424	6
0	15221	4854.586321922695	5
0	15226	4855.193777711964	4
0	15237	4860.553409215613	3
0	15242	4861.182264183746	2
0	15248	4861.999085239762	3
0	15250	4862.099088576779	4
0	15251	4862.116918044521	3
0	15260	4865.156086998874	4
0	15262	4866.046510778203	3
0	15269	4869.164710142048	4
0	15270	4869.916502773326	3
0	15276	4871.531286054112	4
0	15277	4872.672688412565	3
0	15284	4873.978528990376	4
0	15286	4874.035439743245	5
0	15288	4874.965361762465	4
0	15297	4879.946575934394	3
0	15303	4880.658859982272	4
0	15307	4881.107015078376	5
0	15308	4881.170303676106	4
0	15314	4883.515733956818	5
0	15315	4883.903554201357	4
0	15324	4887.067787790126	3
0	15331	4887.282179214385	4
0	15333	4892.628762606629	5
0	15336	4895.637319006326	4
0	15341	4895.743645374482	3
0	15347	4897.528297916118	4
0	15349	4900.19657000862	5
0	15352	4900.808905673716	4
0	15358	4902.7327397439	5
0	15360	4903.289506954497	4
0	15365	4903.744630139696	3
0	15370	4904.92605306608	2
0	15380	4909.363985806647	1
0	15389	4911.699374266321	2
0	15390	4913.515766901501	1
0	15396	4913.813802649319	2
0	15400	4916.716099442151	1
0	15405	4917.349289734656	0
0	15411	4918.248291712047	1
0	15415	4920.422727024301	2
0	15419	4921.959511243812	3
0	15420	4923.107957515041	2
0	15426	4923.285097047332	3
0	15429	4925.809008956758	2
0	15436	4927.292509589408	3
0	15437	4928.151265630234	2
0	15442	4928.332702739339	1
0	15449	4930.727720044902	2
0	15453	4935.8319839393	1
0	15458	4936.53507411425	0
0	15469	4937.785235198487	1
0	15471	4938.833802621769	2
0	15474	4940.41347286737	3
0	15475	4941.333526110776	2
0	15480	4941.638987389278	1
0	15485	4942.069364593031	0
0	15491	4942.880575966601	1
0	15492	4944.257304831214	0
0	15500	4945.91570216733	1
0	15504	4948.09740599251	2
0	15505	4948.522847131808	1
0	15510	4949.303365410065	0
0	15524	4952.281595075491	1
0	15529	4952.794595206815	0
0	15541	4953.296183390782	1
0	15543	4953.690333039552	2
0	15544	4954.179048557186	1
0	15550	4954.440230126063	2
0	15553	4957.141366599951	1
0	15558	4957.456012188698	0
0	15566	4958.440232882219	1
0	15571	4961.897815684441	0
0	15579	4964.207050324638	1
0	15582	4965.24610125179	2
0	15583	4965.478941769647	1
0	15588	4965.779117446119	0
0	15609	4977.315512624601	1
0	15611	4977.658653019522	2
0	15614	4979.385742457132	1
0	15620	4979.767011435606	2
0	15624	4983.670366712429	1
0	15630	4986.819427859111	2
0	15636	4987.47152564192	1
0	15642	4988.431753077977	0
0	15649	4988.863132785864	1
0	15651	4989.234598179236	2
0	15652	4992.870647122776	1
0	15659	4995.426058942411	2
0	15660	4996.436954097164	1
0	15666	4996.791344290239	0
0	15683	4998.765923072505	1
0	15684	4998.773986170881	0
0	15690	4999.136962532896	1
0	15692	4999.465458860921	0
0	15707	5002.949052032413	1
0	15710	5004.601217006872	0
0	15734	5010.598930053105	1
0	15737	5011.743853773075	0
0	15744	5014.31699684934	1
0	15747	5015.846013287127	0
0	15780	5024.229949417277	1
0	15781	5024.2321704434	0
0	15797	5031.813131328154	1
0	15799	5034.006338588977	2
0	15800	5036.177108318748	1
0	15805	5036.32393042155	0
0	15811	5036.397023829374	1
0	15815	5040.250131346143	0
0	15822	5040.976895413153	1
0	15823	5041.374762565785	0
0	15846	5046.407543752913	1
0	15853	5050.31571523717	2
0	15854	5052.573091117719	1
0	15859	5052.60776474884	0
0	15867	5054.333274711475	1
0	15870	5059.234674198348	2
0	15871	5059.2736935512	1
0	15876	5059.80105100461	0
0	15890	5061.725139854882	1
0	15892	5061.777080779696	2
0	15894	5064.46571531297	1
0	15902	5067.93278110293	0
0	15908	5068.192984041341	1
0	15909	5068.293369490291	0
0	15915	5069.250605341754	1
0	15921	5074.165830446412	0
0	15932	5075.419324559927	1
0	15936	5076.103208893832	0
0	15949	5080.77085464535	1
0	15950	5081.783298470839	0
0	15973	5090.962574887624	1
0	15974	5091.296175833076	0
0	16003	5097.937831616626	1
0	16006	5099.435897434865	0
0	16013	5103.208128990715	1
0	16014	5104.887184076758	0
0	16035	5114.515220621522	1
0	16037	5115.461941362283	2
0	16038	5115.489413737886	1
0	16044	5120.125796434446	0
0	16051	5120.481322261811	1
0	16054	5125.188701752306	2
0	16055	5126.808526264985	1
0	16062	5128.892299719578	0
0	16069	5130.209323997155	1
0	16070	5132.954523412842	0
0	16087	5136.992709052051	1
0	16093	5138.897530981138	0
0	16099	5139.297154324779	1
0	16100	5139.942726076042	0
0	16122	5147.701419531074	1
0	16124	5151.099388909426	2
0	16126	5151.55811411536	3
0	16128	5152.39610382678	4
0	16129	5152.661221110218	3
0	16139	5155.586744908666	2
0	16146	5156.15898266537	3
0	16147	5157.262902797842	2
0	16155	5157.987732410392	3
0	16157	5158.312865351744	4
0	16158	5158.869770320844	3
0	16163	5159.379165507371	2
0	16168	5159.551344093062	1
0	16175	5161.644480070073	0
0	16189	5164.548519580213	1
0	16192	5170.800102542749	0
0	16204	5173.242639610413	1
0	16206	5173.774481167932	2
0	16209	5174.50667923329	1
0	16218	5176.709964532668	0
0	16224	5176.837621860126	1
0	16225	5177.298156012273	0
0	16234	5182.439120710339	1
0	16236	5185.217597599931	0
0	16242	5185.233581259921	1
0	16244	5186.071476408485	0
0	16255	5186.889807393239	1
0	16259	5188.050205535858	2
0	16261	5188.292692653379	3
0	16265	5190.416544294492	2
0	16275	5196.520982159668	1
0	16281	5197.58384958519	2
0	16283	5197.657872875989	3
0	16287	5201.816176158974	2
0	16292	5202.475808377217	1
0	16300	5202.621181495618	0
0	16318	5204.852432579771	1
0	16320	5207.370206418343	2
0	16322	5210.05779430328	3
0	16325	5213.556214156365	2
0	16334	5215.989309449576	3
0	16336	5218.340019300466	4
0	16338	5218.443971291256	5
0	16341	5221.257846690474	4
0	16350	5224.566903871408	3
0	16359	5228.727052611323	4
0	16360	5229.793096428759	3
0	16365	5229.804711145269	2
0	16372	5229.959039444827	3
0	16373	5230.536239429993	2
0	16379	5231.118071984124	3
0	16389	5235.400191554753	4
0	16392	5235.583309701544	3
0	16398	5236.546427997303	2
0	16403	5237.161472179776	1
0	16410	5237.985439910258	0
0	16434	5244.320681476618	1
0	16436	5247.995246054612	2
0	16438	5248.726826713827	3
0	16439	5252.981589044997	2
0	16444	5253.227123820539	1
0	16450	5253.660188441566	0
0	16462	5255.033418614902	1
0	16465	5256.30836051762	0
0	16510	5270.011295133292	1
0	16512	5271.530960806821	0
0	16519	5272.802238347025	1
0	16521	5273.860712628845	2
0	16525	5274.835490599079	3
0	16526	5274.989169304595	2
0	16532	5275.176820624032	3
0	16536	5279.731200910862	2
0	16543	5283.04213334581	3
0	16544	5288.779177620062	2
0	16553	5294.781861198599	3
0	16555	5295.359728678077	4
0	16556	5296.128324217516	3
0	16563	5296.335603873673	4
0	16566	5298.106174825173	5
0	16567	5299.497064117473	4
0	16574	5300.268173472798	5
0	16576	5301.922579974705	4
0	16586	5307.527974760346	5
0	16589	5309.976999800484	4
0	16598	5314.569579164748	3
0	16606	5316.273303328043	4
0	16607	5317.700118146909	3
0	16613	5322.892813824463	4
0	16614	5327.65010694054	3
0	16619	5328.314913620475	2
0	16625	5329.272054526616	1
0	16635	5330.85024036065	0
0	16674	5338.112880386583	1
0	16675	5338.456709311702	0
0	16682	5340.19039064255	1
0	16683	5341.186062537054	0
0	16698	5344.432691509711	1
0	16702	5346.784765320655	2
0	16704	5348.09382118718	3
0	16705	5350.048036594066	2
0	16711	5350.895248065614	1
0	16718	5352.403125012708	0
0	16724	5352.432885463451	1
0	16725	5352.473918576927	0
0	16733	5352.714493505857	1
0	16734	5353.852985094862	0
0	16764	5360.572498288395	1
0	16766	5362.013010971411	2
0	16770	5363.960615241726	3
0	16771	5364.292096179706	2
0	16783	5366.066679938753	3
0	16787	5366.540013686448	4
0	16789	5366.66740077826	5
0	16790	5366.792290909749	4
0	16795	5367.364678309655	3
0	16800	5369.026848630286	2
0	16806	5369.672362502658	1
0	16812	5370.372879258268	2
0	16814	5370.673157987963	3
0	16820	5374.976408229899	2
0	16826	5375.25986058162	3
[...]
4	80479	25767.723529295513	6491.9741586727
4	80502	25775.740926820691	6479.6559828219
4	80582	25804.968983404342	6503.075926514
4	80589	25806.647019954288	6499.3631372377
4	80615	25813.680014617103	6503.6160571565
4	80739	25850.075774774913	6538.2778360184
4	80745	25850.215216101991	6535.086536224
4	80750	25852.418126712731	6535.910975313
4	80755	25852.517014726842	6530.9937909764
4	80765	25855.299206481144	6532.2879488094
4	80776	25856.855561717532	6527.7367734677
4	80783	25859.388007911525	6523.7723552958
4	80795	25864.507200557449	6519.7405614315
4	80905	25899.954392356409	6550.9843975963
4	80919	25907.639511948881	6542.2054899116
4	80943	25915.545267051369	6539.3443555965
4	80958	25918.04918473141	6536.9228019388
4	80969	25921.212894829949	6528.4640158557
4	80982	25925.276273496205	6529.124077745
4	81008	25930.045727958387	6531.810323147
4	81074	25945.614981595253	6546.9102133665
4	81080	25946.397719391985	6547.682913993
4	81086	25948.52079764551	6532.6082726282
4	81098	25951.711078090631	6532.476958067
4	81140	25958.563887564099	6537.6819451274
4	81160	25969.831595013139	6543.6906244561
4	81175	25976.89760778067	6539.1458025176
4	81182	25978.628955765868	6540.0676741823
4	81194	25981.939032876152	6535.0669201421
4	81219	25986.399625262104	6534.4926383104
4	81294	26017.022098112734	6558.3084405307
4	81303	26022.71945615276	6544.8610782588
4	81314	26025.158477832152	6546.8362961547
4	81319	26026.242819687649	6535.7521377593
4	81324	26027.424964700415	6532.7443075727
4	81335	26034.783764451739	6537.5897861871
4	81411	26055.447692932244	6558.2007831048
4	81420	26057.70783361241	6559.4307823966
4	81437	26065.4178404669	6560.141308101
4	81466	26075.036515330283	6569.4487063751
4	81522	26096.640583274059	6577.090807411
4	81527	26097.514675346431	6577.9408103671
4	81532	26099.348197867951	6576.478182698
4	81541	26107.037152363382	6583.4089923594
4	81546	26109.795672796966	6581.0853842927
4	81555	26114.628311822324	6585.3967243776
4	81568	26120.36261869753	6588.1843597025
4	81573	26124.468877561162	6591.7087217839
4	81584	26126.693672915205	6591.501764216
4	81650	26141.310533746788	6604.8432076011
4	81660	26146.082366854158	6602.3399157195
4	81697	26154.478226496851	6609.0428415626
4	81705	26156.098267696737	6605.5849951642
4	81716	26156.840238667532	6605.4212052237
4	81727	26163.42464899596	6611.4496932328
4	81753	26172.684042661831	6620.239460658
4	81760	26176.078140836042	6620.261615569
4	81769	26177.360050198152	6619.6654074807
4	81793	26185.368361289993	6623.7454735913
4	81814	26194.290320936324	6618.2134384498
4	81827	26197.826738234157	6616.5668661146
4	81844	26207.806554253817	6621.2840873455
4	81884	26218.003702735263	6631.0115208882
4	81898	26221.1218525179	6629.4111293234
4	81903	26225.049670497441	6627.978523813
4	81910	26227.190341364841	6626.2475062967
4	81925	26234.483623498569	6629.2690263009
4	82004	26257.470773240565	6640.9962453995
4	82010	26259.111240183559	6640.5025477172
4	82022	26262.565896061294	6638.7306250681
4	82116	26293.086588533328	6664.6378636911
4	82128	26298.795670305518	6669.8723958852
4	82138	26299.323784142228	6669.128115021
4	82149	26302.609706088836	6662.5984054843
4	82161	26304.169620395595	6658.5568991717
4	82166	26304.775796471895	6657.2808621414
4	82184	26314.064850156764	6651.8487241774
4	82354	26367.887815091325	6681.2706077929
4	82364	26374.703536527847	6686.7890434898
4	82375	26376.782832848368	6684.1658440611
4	82380	26377.484148303491	6684.6240706311
4	82385	26377.598372879611	6683.2595525768
4	82392	26382.669700872837	6685.7695313158
4	82398	26389.975712843662	6692.1842913284
4	82403	26390.327987554978	6685.7643543432
4	82412	26395.9958268004	6687.8442595337
4	82423	26401.799621857412	6675.2587816059
4	82428	26404.698271004756	6665.3766176614
4	82433	26405.875328208215	6664.8025418298
4	82442	26413.485601220898	6669.4587338818
4	82463	26420.130530923757	6662.4087412438
4	82474	26422.564782422285	6662.8258282392
4	82479	26423.042954173263	6640.0303130291
4	82488	26427.329918832973	6639.6038915071
4	82585	26460.235200900795	6639.8393859341
4	82652	26479.411028560513	6653.9926887808
4	82703	26501.927153652669	6665.9437609153
4	82728	26504.006650296902	6662.8159232311
4	82740	26507.717431988742	6663.6521430835
4	82850	26541.39018763208	6684.9472222228
4	82862	26544.548624916167	6668.0733045468
4	82869	26544.910978794054	6666.9954319196
4	82883	26547.309676062284	6663.3531210045
4	82920	26569.677522125443	6681.2372951445
4	82947	26582.976789391778	6687.9008294675
4	83224	26658.903247053815	6761.328223919
4	83229	26659.720119656996	6755.4902455477
4	83236	26662.769401740805	6743.6300155251
4	83256	26667.759607183051	6738.8011671688
4	83261	26668.412313233911	6731.411632617
4	83266	26668.666970248717	6724.9331780908
4	83274	26671.872815746839	6726.1459136872
4	83285	26675.45026638195	6719.6131320064
4	83433	26719.696600371333	6755.3399917703
4	83447	26722.111654128284	6749.8563147955
4	83455	26724.156935634388	6737.8473571581
4	83465	26726.077027930968	6737.7452855447
4	83476	26729.120397698785	6732.1175502332
4	83493	26736.123550774609	6727.0381095878
4	83516	26745.713543686627	6731.3347047628
4	83529	26748.459823475754	6730.9341688443
4	83536	26750.882559938777	6732.3450597131
4	83548	26753.060943067082	6733.7409186064
4	83559	26755.356758084179	6725.485451648
4	83656	26789.08378316804	6759.102521764
4	83661	26789.360776687781	6755.4289065018
4	83670	26790.320525283395	6753.9770813554
4	83688	26801.189849769477	6733.4051986341
4	83695	26806.659832374511	6726.3707411405
4	83724	26812.14682744618	6731.3734498137
4	83742	26819.461668465178	6736.3437337589
4	83795	26828.670041082743	6744.8255467984
4	83800	26830.142744281815	6738.4375152548
4	83817	26840.928311482335	6742.0315931498
4	83854	26855.625468884678	6756.6524218368
4	83864	26857.500909836476	6755.5067437271
4	83873	26861.41503256224	6743.8657519002
4	83884	26866.070313447302	6747.4620540749
4	83889	26866.401638286524	6732.2475917591
4	83894	26867.021138639705	6723.6301144357
4	83901	26870.776847630202	6718.5529973574
4	83916	26875.363395607026	6717.0313916842
4	83935	26882.552132344985	6722.1694577325
4	83942	26883.116445418376	6722.3089376062
4	83959	26891.326012750223	6722.2360276021
4	83964	26892.552203805203	6721.0502122684
4	83983	26898.126344611147	6726.32469966
4	84069	26924.489420925897	6750.1716020517
4	84078	26926.363944696339	6747.1073369644
4	84103	26936.880648147603	6755.1624452591
4	84108	26939.385718231543	6749.2372069213
4	84122	26946.862372022199	6738.7157980981
4	84300	27007.674122808002	6794.9879278924
4	84307	27009.46812565473	6794.6458200486
4	84312	27009.731937176438	6791.7131093207
4	84317	27010.228078136514	6788.8985381776
4	84326	27012.061717039191	6790.6033941663
4	84353	27021.07069769973	6785.5401772178
4	84609	27096.193666723659	6846.7812108772
4	84614	27096.506549488455	6843.9511669144
4	84628	27099.229417850641	6832.9909788277
4	84637	27100.058735967763	6821.4365170952
4	84669	27106.841247937343	6823.6236254505
4	84679	27114.615162433254	6828.3933400455
4	84692	27118.323873327962	6830.515981306
4	84697	27123.868234112007	6831.856099391
4	84708	27125.623994560836	6833.2537761835
4	84801	27152.049349406336	6859.5485620536
4	84830	27167.44918056932	6871.6018333527
4	84848	27171.821149409707	6872.5337559648
4	84864	27173.656617756601	6869.1164198649
4	84895	27193.439495409336	6888.8448156053
4	84932	27210.220042205283	6904.4134008911
4	84982	27222.287078583788	6910.1362434757
4	84997	27231.971258522491	6919.8071614598
4	85041	27242.596818395913	6914.3912904143
4	85059	27249.715448564302	6914.4464294585
4	85088	27259.827769857534	6908.4359484721
4	85222	27310.131680074881	6949.198054143
4	85237	27311.62007483789	6949.7086391664
4	85244	27312.567138542813	6949.3250493619
4	85259	27320.814600296815	6950.5364629839
4	85348	27342.570473410646	6969.7817084755
4	85359	27345.133863495159	6958.3324443467
4	85367	27347.748567868508	6954.1816147131
4	85387	27357.531446030375	6942.7326763105
4	85548	27415.773303835665	6996.2069845036
4	85557	27420.221348583802	6998.5856122561
4	85572	27422.128523248231	6993.1519232252
4	85577	27422.434520738743	6993.2448689191
4	85582	27423.655204945603	6992.6587615042
4	85601	27434.096846696587	7002.2163755633
4	85661	27460.952190445746	7026.6847951129
4	85666	27461.912666588487	7015.7604302321
4	85673	27465.13474212069	7010.4254691982
4	85710	27476.063324061512	7006.5318167648
4	85719	27478.708079599743	7007.7470475892
4	85746	27486.081528493501	7014.2759318434
4	85758	27490.101493256226	7008.0674851189
4	85785	27493.550156510604	6989.5171626164
4	85790	27495.223191984384	6984.0732976487
4	85800	27501.873161354914	6990.5240177032
4	85805	27502.121468906889	6983.3231455572
4	85817	27511.293077075013	6992.255215259
4	85914	27542.133973492335	7019.6348728509
4	85919	27544.846344941534	7019.0164653383
4	85929	27550.880416312049	7019.9189842237
4	85957	27555.919089490871	7015.6614843409
4	86079	27585.039904526381	7026.3692439603
4	86097	27593.760043019935	7027.4388809393
4	86106	27600.784458556078	7033.1545881954
4	86124	27607.577132657223	7033.5502517812
4	86170	27619.770524064783	7042.5655287951
4	86181	27627.106931493081	7045.6994546361
4	86259	27653.09189787216	7067.5768687013
4	86274	27658.06315366498	7072.018863861
4	86301	27665.746484969709	7073.2150225699
4	86615	27797.876739641759	7189.557770925
4	86648	27809.962932959179	7194.7941614076
4	86653	27812.206313039144	7176.1653513789
4	86660	27814.247611974905	7175.1566531498
4	86665	27814.428043899726	7172.6296039733
4	86679	27817.410093640613	7172.8908274874
4	86701	27824.669139654714	7179.4267743527
4	86821	27857.417641276095	7210.525631786
4	86957	27896.467156832199	7227.854151388
4	86995	27905.654995834412	7226.7435343864
4	87010	27916.804017889743	7232.4617887928
4	87023	27925.320916338858	7240.8197984367
4	87072	27938.3803360637	7235.8067079693
4	87081	27939.862237356663	7235.5776286362
4	87096	27941.727718589801	7229.8616574667
4	87102	27941.943162961528	7226.7651659169
4	87109	27942.542307193284	7216.6029509617
4	87148	27956.404201713025	7226.2415452652
4	87178	27969.792765792545	7232.120158676
4	87183	27974.222266798139	7233.5696035612
4	87188	27974.377097372133	7229.4876054482
4	87196	27975.931584769039	7229.2649718259
4	87203	27976.7866431545	7213.8666022018
4	87210	27980.403498091658	7213.8632902836
4	87222	27982.720829288005	7215.9179162458
4	87237	27992.926597929947	7222.2168087921
4	87336	28021.838709010497	7250.445333116
4	87351	28026.639870319256	7250.5825811273
4	87394	28040.312523831819	7262.3810854392
4	87399	28040.617190145944	7257.3778943326
4	87406	28042.194655364461	7255.5106172147
4	87421	28044.420957748061	7253.5882716811
4	87434	28049.601707426873	7255.7794520518
4	87445	28050.596996381023	7252.8478382958
4	87470	28058.070330527001	7253.9430324492
4	87483	28067.8331161407	7260.2658893569
4	87496	28071.843486467669	7260.8778193339
4	87507	28074.79557662927	7257.5823909644
4	87523	28077.220443648213	7246.6596440362
4	87528	28078.919308594586	7241.3813649456
4	87541	28086.737062926698	7249.1588939915
4	87638	28126.399442643849	7284.60153739
4	87658	28131.302096830175	7282.9608406248
4	87665	28133.362516978911	7278.8076218486
4	87676	28135.206423698127	7280.6410932351
4	87681	28136.273980875091	7271.1482857569
4	87694	28139.137301712652	7270.6223241274
4	87726	28147.743528079377	7266.545603541
4	87733	28151.492823946367	7270.200482341
4	87748	28154.247845808715	7265.2839983701
4	87815	28172.857640594607	7269.9781108039
4	87846	28183.847947601052	7279.1663659858
4	87911	28213.812914018296	7288.1957186472
4	87933	28221.623780392197	7288.9879036564
4	87965	28227.123960228544	7293.8471028641
4	87971	28228.433449693127	7293.2523812606
4	87983	28232.839741454842	7288.9694829967
4	87994	28233.437756284821	7277.1293933958
4	87999	28233.47735954418	7277.1334332096
4	88005	28235.772589803005	7252.598494852
4	88017	28245.472281012642	7257.2836155441
4	88030	28249.856028827096	7257.2558369338
4	88037	28251.391841138913	7250.441424699
4	88052	28259.170143372656	7257.054405494
4	88065	28260.573263245501	7254.476051002
4	88072	28261.082737040308	7249.0213243571
4	88085	28270.26353872146	7240.7718577
4	88106	28282.099167667732	7251.2804247351
4	88192	28308.208949510254	7276.1839171838
4	88197	28308.262275885968	7269.6673324999
4	88213	28316.957191304655	7273.8750637395
4	88257	28330.33617577559	7275.4536959647
4	88269	28333.091604888057	7277.7420130019
4	88285	28340.988261329493	7281.2572288788
4	88301	28345.326851012388	7282.5227923598
4	88316	28354.088695851604	7279.1952334597
4	88344	28367.860568362888	7282.9600749583
4	88383	28376.900570568464	7291.7559209526
4	88388	28378.45399667734	7283.1606185911
4	88399	28383.214662638962	7283.8617619188
4	88428	28391.308482392778	7285.6914931774
4	88464	28400.189439885124	7292.8664888814
4	88469	28401.13036462529	7293.339090867
4	88474	28403.113213777228	7293.9562614885
4	88484	28410.72175654029	7297.2713802961
4	88496	28416.363704386426	7273.1091446397
4	88532	28427.286074001441	7283.7091054402
4	88549	28431.103711671808	7281.8373140313
4	88559	28435.097603578156	7281.7046548219
4	88714	28499.031577391645	7327.4867232654
4	88722	28503.335867641928	7327.1053746294
4	88733	28504.148666652642	7327.5396681089
4	88740	28504.90551002241	7305.7736387641
4	88756	28514.305354448542	7311.870499207
4	88761	28514.418349606935	7297.4135333291
4	88776	28522.630420440458	7296.534074249
4	88814	28527.462015964599	7299.0505126167
4	88833	28532.70225349143	7303.9851601931
4	88855	28537.776879102922	7299.258948139
4	88862	28541.102367385804	7301.3559888995
4	88883	28545.450476472564	7297.1222583913
4	88890	28546.821800385256	7297.9425232372
4	88907	28551.729581705885	7300.6296616226
4	88918	28556.247612950881	7301.2729907145
4	88931	28559.92090832177	7299.0025184758
4	88957	28569.288057210985	7300.0307075918
4	88964	28575.5486294446	7295.3236399418
4	88973	28581.905419017865	7278.6018707038
4	88978	28582.781469128184	7277.6843290795
4	88985	28585.465011948078	7272.7451903124
4	88990	28586.880381406272	7255.2398014353
4	88995	28589.858613023885	7256.4027135112
4	89002	28596.061198390543	7255.4264300375
4	89153	28658.093077245165	7316.22348718
4	89190	28670.874497865542	7323.7145505728
4	89199	28672.84954216094	7311.8014998775
4	89240	28685.620805706388	7323.7637802949
4	89252	28687.414384983378	7320.6295861181
4	89257	28687.476640337159	7290.4579887618
4	89262	28688.149560586023	7289.1743786963
4	89271	28690.410027244868	7291.1111247498
4	89282	28695.610318642706	7289.2103989542
4	89312	28703.323189181999	7287.7356494227
4	89340	28709.076019475931	7291.595662009
4	89361	28716.692367479624	7292.3678966027
4	89474	28746.081860308987	7318.3601508906
4	89480	28746.362589570336	7318.5402489141
4	89485	28746.7608298433	7317.3703403056
4	89494	28749.029467391288	7318.6220439243
4	89545	28766.098510355856	7334.2556643622
4	89559	28771.542551465332	7338.9668050532
4	89672	28795.283520837894	7359.5196438559
4	89680	28796.924982646518	7360.0545487782
4	89697	28803.134545713856	7347.8918106475
4	89708	28804.611692656765	7345.7139877007
4	89713	28805.882983124219	7340.5694388535
4	89718	28806.576046862176	7336.354117649
4	89731	28809.734918148948	7333.9451229579
4	89757	28816.203087408851	7339.2537001234
4	89771	28822.881177895044	7343.4578268586
4	89783	28828.820188589975	7343.8317400009
4	89815	28839.98817392183	7353.6493256469
4	89857	28856.34252154477	7367.9992454997
4	89872	28858.045647248668	7355.3832500768
4	89879	28858.78539356409	7350.2163749609
4	89884	28859.173391894882	7345.82324188
4	89898	28865.008364809136	7338.5454133526
4	89943	28877.522541435141	7350.1427469453
4	89952	28879.235698825867	7351.8169904172
4	89991	28896.87831560115	7364.3132149875
4	90016	28906.129189102398	7367.2214994346
4	90037	28911.297463474176	7366.1493778265
4	90049	28914.408943400274	7361.4129431857
4	90066	28916.746121002414	7362.362636367
4	90090	28924.504653631476	7342.4110457441
4	90107	28930.338145306093	7343.6997358811
4	90124	28937.744625783976	7336.8912799947
4	90217	28961.410321598494	7359.0195707471
4	90233	28966.489039941477	7354.3257025408
4	90849	29163.695537983871	7547.9825340936
4	90855	29164.969621637999	7545.1190742124
4	90872	29168.981153744282	7541.4986844904
4	90913	29181.486575507287	7548.7940775009
4	90936	29188.735246725847	7544.1861304908
4	90941	29189.34169631077	7540.538849442
4	90949	29191.042555679885	7540.1809856514
4	90954	29192.629265653398	7538.8086368727
4	90965	29196.094692594661	7535.9656514586
4	90990	29205.060259904031	7544.7077596764
4	91001	29212.997831808307	7546.7071417187
4	91020	29216.808629779107	7546.4929428173
4	91054	29223.164948364922	7540.3508278856
4	91059	29227.786008934293	7532.5799961937
4	91064	29228.48756705459	7529.7761410339
4	91074	29232.811139374391	7532.3539195232
4	91250	29285.750259917655	7575.8966072885
4	91255	29287.117655634069	7573.8706346828
4	91267	29289.988404191622	7570.8838471589
4	91317	29299.117284308232	7576.4511235899
4	91337	29309.658300581875	7568.2066460359
4	91648	29414.393712697046	7668.5939345111
4	91852	29487.816726405711	7740.5022245009
4	91863	29489.173272862855	7741.8481696803
4	91870	29492.801648168962	7737.8290444997
4	91975	29536.539137603805	7771.0678512675
4	91987	29541.460909444108	7774.0325675022
4	91994	29542.627986692057	7772.9610209848
4	92016	29546.452549068455	7775.9435231776
4	92029	29547.357829374558	7772.5155884346
4	92049	29550.512116993531	7774.9113108445
4	92063	29554.983295572491	7748.8585623975
4	92109	29566.356871341725	7753.5627250536
4	92116	29571.351492411807	7726.6541824262
4	92121	29572.448197654844	7726.8494037391
4	92126	29576.689090552425	7718.9204693392
4	92140	29582.749472572771	7719.9071307958
4	92436	29689.407997702826	7817.7819983355
4	92447	29690.397492320436	7818.1519152651
4	92453	29690.9796936294	7815.5935428156
4	92463	29695.825054232053	7809.2005063562
4	92529	29720.625019839932	7829.8958493282
4	92561	29730.568908081838	7818.8092680188
4	92587	29737.036385528399	7824.8769624741
4	92592	29737.774902640629	7797.6141923889
4	92597	29737.937966114866	7784.9368735099
4	92605	29741.162414283138	7782.5524575618
4	92615	29742.769313485811	7780.3819451659
4	92621	29746.230086529746	7774.9930234441
4	92626	29747.425703089776	7771.3836325208
4	92637	29755.300640469579	7775.1234492705
4	92708	29772.171764588107	7788.0256379753
4	92723	29781.815623815401	7787.6727785378
4	92734	29783.861758475616	7788.4393119052
4	92740	29784.461331001738	7775.7337470059
4	92747	29788.600822665032	7767.5673646844
4	92759	29794.36474020402	7764.1735598392
4	92769	29798.663764791822	7759.8188006879
4	92792	29807.122979403155	7767.7863209566
4	92797	29807.455922484222	7763.5928588733
4	92805	29807.955727286	7763.4157822994
4	92810	29812.432780530016	7766.6463866657
4	92818	29817.41382175373	7760.5881839145
4	92823	29817.470644833779	7752.3780858732
4	92834	29820.406797110423	7746.5899674447
4	92851	29826.7551394773	7752.8178754541
4	92864	29834.452817428991	7756.9287252161
4	92889	29843.668160312753	7758.5820519951
4	92903	29853.17960056246	7761.1065311596
4	92908	29853.630684015707	7753.5009210066
4	92913	29856.042180285406	7751.8086196019
4	92924	29866.781240632137	7759.5472532346
4	92942	29873.345105546245	7764.0709210041
4	92955	29885.059099052674	7772.6384206813
4	93061	29920.493197613176	7808.0143761857
4	93070	29922.542084132253	7806.8365878859
4	93114	29931.371620051249	7811.4664680031
4	93119	29931.417151435142	7810.8049701466
4	93124	29931.755534121169	7784.2097539835
4	93129	29935.774999218275	7782.6012479509
4	93134	29936.73279534782	7783.3673115897
4	93139	29939.573099327626	7784.4802217386
4	93146	29940.662677542737	7782.8330490672
4	93159	29945.896524640377	7777.4713964772
4	93164	29947.772422588426	7775.338068479
4	93169	29951.647437026695	7775.3146608602
4	93176	29960.26383330456	7776.0972646268
4	93183	29962.746195875684	7777.9712075884
4	93217	29974.904223974564	7780.8970802099
4	93262	29984.72153254381	7784.6189523787
4	93271	29988.515445070656	7785.2586552604

