version 2
run Third-n2-3-20191016-17:04:34-8560
attr configname Third-n2
attr datetime 20191016-17:04:34
attr experiment Third-n2
attr inifile omnetpp.ini
attr iterationvars ""
attr iterationvarsf ""
attr measurement ""
attr network org.omnetpp.queueing.Pizza
attr processid 8560
attr repetition 3
attr replication ""
attr resultdir results
attr runnumber 3
attr seedset 3
param **.PS.maxInventoriedPS 2
param **.U1.interArrivalTime exponential(4s)
param **.U2.interArrivalTime exponential(6s)
param **.PS.serviceTimeForInventoryU1 exponential(1.4s)
param **.PS.serviceTimeForInventoryU2 exponential(1.4s)
param **.PS.serviceTimeDirectU1 exponential(1.8s)
param **.PS.serviceTimeDirectU2 exponential(1.8s)
param **.PS.probabilityProducing 0.8
param **.CS.serviceTimeU1 exponential(2.3s)
param **.CS.serviceTimeU2 exponential(2.3s)

vector 0 Pizza.EntryQueueU1 queueLength:vector ETV
attr interpolationmode sample-hold
attr title "queue length, vector"
vector 1 Pizza.CS queueLength:vector ETV
attr interpolationmode sample-hold
attr title "queue length, vector"
vector 2 Pizza.EntryQueueU2 queueLength:vector ETV
attr interpolationmode sample-hold
attr title "queue length, vector"
vector 3 Pizza.sink lifeTime:vector ETV
attr interpolationmode none
attr title "lifetime of arrived jobs, vector"
attr unit s
vector 4 Pizza.sink lifeTimeU2:vector ETV
attr interpolationmode none
attr title "lifetime of arrived jobs, vector"
attr unit s
vector 5 Pizza.sink lifeTimeU1:vector ETV
attr interpolationmode none
attr title "lifetime of arrived jobs, vector"
attr unit s
0	0	0	0
0	5	3.20112956357	1
0	9	4.576191196757	2
0	11	5.675626581148	1
0	16	5.771028807239	0
0	45	13.513914581795	1
0	46	13.599138972934	0
0	60	28.058800148358	1
0	63	29.035319233078	0
0	72	30.381316318756	1
0	73	30.844698773193	0
0	86	37.186887230861	1
0	90	41.650535659484	2
0	93	42.281038192808	1
0	100	43.37309110259	0
0	137	54.738453736066	1
0	139	56.071894092827	2
0	140	59.050961382915	1
0	146	60.445396867015	0
0	169	65.627225434001	1
0	172	67.12358687621	0
0	186	71.120678313316	1
0	187	72.198712753318	0
0	193	72.78182300576	1
0	196	74.358779396212	2
0	197	76.222416271137	1
0	204	76.71497361308	2
0	205	77.050218281176	1
0	211	77.653102934181	0
0	240	83.295703947951	1
0	242	83.849506928133	2
0	243	85.02857616965	1
0	249	85.507038078215	0
0	297	114.185578234746	1
0	298	115.043095184253	0
0	312	117.338774754196	1
0	315	119.68956076774	0
0	373	147.175128865472	1
0	374	149.003287467724	0
0	382	151.387269593221	1
0	383	153.150886004712	0
0	399	173.189646140519	1
0	401	174.175284115877	2
0	403	177.288020711278	3
0	404	177.474724196272	2
0	410	184.244644637598	3
0	412	184.990124593841	4
0	413	192.11939741763	3
0	419	194.827837112791	2
0	425	195.783543282274	1
0	430	198.957417787115	0
0	484	222.976038729597	1
0	486	223.893388351082	2
0	490	224.589122054098	3
0	494	231.438152769474	4
0	495	232.75219105576	3
0	501	232.879154032665	4
0	504	234.228347462521	5
0	506	235.51222323685	4
0	512	235.581722091766	5
0	519	238.263533382204	4
0	525	242.362984901013	3
0	531	243.810235910172	4
0	532	245.287160055825	3
0	536	245.321555875318	4
0	538	246.631655179302	5
0	542	247.684711215219	6
0	544	248.730976186011	5
0	550	251.805629391326	6
0	551	252.362045419848	5
0	558	253.828846864334	4
0	564	254.866220853322	5
0	570	260.427869081715	6
0	574	265.521892850346	7
0	576	266.121356071198	8
0	578	266.307615330335	9
0	580	266.396989664043	10
0	582	266.625987530443	11
0	583	266.701764197075	10
0	589	267.537566607835	9
0	595	267.63203782278	10
0	596	267.928368267441	9
0	603	269.598768437911	8
0	607	270.224211237168	9
0	616	274.160556365728	8
0	621	275.518126795364	7
0	630	276.285502191749	6
0	636	276.752544650049	5
0	642	277.288603325247	6
0	644	278.336606740932	5
0	651	280.565155171839	4
0	657	281.124407723231	5
0	661	282.782964121857	4
0	667	283.155308870458	5
0	671	283.819948964884	6
0	677	284.830871716267	7
0	678	284.842216282394	6
0	682	285.887246377312	7
0	684	285.938596541529	8
0	686	285.941579734597	9
0	692	287.225914563058	10
0	693	287.441410849503	9
0	699	287.935349450579	10
0	704	291.23048676366	9
0	709	291.339511694401	8
0	716	294.47190859062	7
0	724	298.098080618345	6
0	731	301.386600751376	5
0	741	303.835178646784	4
0	747	304.287521060498	3
0	755	305.017677096968	4
0	758	306.462639509824	3
0	764	307.113708174102	2
0	770	307.177781081931	3
0	771	307.259794540199	2
0	777	307.469654532271	3
0	784	312.15795150226	4
0	788	315.208754638899	5
0	789	317.454058787724	4
0	795	318.895663892772	3
0	800	319.831166762986	2
0	806	322.651829194471	3
0	811	324.226412417454	2
0	815	324.737200034742	3
0	819	329.215118661704	2
0	824	330.633916863519	1
0	828	331.102138751636	2
0	832	332.935248279416	1
0	837	332.998277379555	0
0	847	337.158708271749	1
0	851	338.319744771634	2
0	853	338.412913340447	3
0	855	340.108554081155	4
0	857	340.936409660889	5
0	859	341.170625162267	6
0	860	343.112643249579	5
0	866	345.658112491072	6
0	867	346.602252790415	5
0	876	350.591743474939	4
0	882	350.692049499405	5
0	884	351.612921322738	6
0	886	355.904097660553	5
0	892	356.032902745611	6
0	898	361.104082484511	5
0	906	361.469231825164	6
0	908	364.290801330825	7
0	910	364.524285567939	8
0	911	365.669343068713	7
0	919	367.8806986271	8
0	920	370.24545205782	7
0	925	370.55635541202	6
0	930	370.73049365118	5
0	935	374.088733036694	4
0	942	376.975274759597	5
0	943	377.767662808034	4
0	948	380.061990153127	3
0	952	380.609602962066	4
0	959	384.050897970124	5
0	961	384.635858351505	4
0	966	385.089493599655	3
0	972	386.199570963767	4
0	977	387.790375653482	3
0	983	388.131418482174	2
0	989	388.589747684861	3
0	990	388.672725338616	2
0	997	390.342929277523	1
0	1003	390.690729681319	2
0	1004	392.49301686837	1
0	1010	393.358396070237	2
0	1011	397.600366294463	1
0	1017	401.058270401335	0
0	1028	401.921422515225	1
0	1029	404.970166251069	0
0	1042	407.794125989834	1
0	1045	408.79854640329	0
0	1060	411.865541447135	1
0	1064	413.519403768734	2
0	1065	415.09800818898	1
0	1073	416.877061580586	0
0	1087	424.733474985831	1
0	1090	429.103308332803	0
0	1110	436.379577599301	1
0	1114	436.588817773821	2
0	1116	436.615684678196	3
0	1120	442.706945525993	4
0	1121	443.677880284066	3
0	1129	445.810893832641	4
0	1130	447.625640578956	3
0	1136	448.199088977883	2
0	1142	449.213474287097	3
0	1143	450.420464052589	2
0	1151	451.83814205037	3
0	1153	452.579133255874	4
0	1155	452.669064223307	5
0	1157	454.112137774904	6
0	1158	454.186987649935	5
0	1167	458.43146152148	6
0	1169	462.297382640385	7
0	1173	464.513390113688	8
0	1175	466.737834694985	9
0	1177	468.118690654914	10
0	1178	468.918973090946	9
0	1185	471.083711055464	10
0	1191	472.15889230812	9
0	1197	472.223353746574	8
0	1203	473.329616382089	7
0	1209	473.428477616691	8
0	1210	474.649586061191	7
0	1215	475.872448951127	6
0	1223	478.877076883786	5
0	1229	480.428507074972	4
0	1234	482.187880727961	3
0	1240	482.214681803925	4
0	1241	482.29165189083	3
0	1247	484.942162401598	4
0	1250	485.314050521108	5
0	1252	486.158066516279	4
0	1260	487.558118851188	3
0	1266	490.431321714454	2
0	1272	490.550994895917	3
0	1273	491.307152731202	2
0	1280	493.038504104094	1
0	1285	493.485434001183	0
0	1311	500.901857177512	1
0	1313	501.311339256108	2
0	1315	501.995606250315	3
0	1318	505.12738533626	2
0	1325	506.132969353437	1
0	1333	506.277848635206	0
0	1351	512.296685518772	1
0	1352	512.97051647134	0
0	1366	515.114302435158	1
0	1368	515.862565318747	2
0	1369	517.668365089208	1
0	1374	519.656851120895	0
0	1403	529.359570505132	1
0	1405	529.89601591704	2
0	1406	530.11999276337	1
0	1412	530.186810603341	2
0	1414	532.175208175625	3
0	1417	532.752402378591	2
0	1422	532.895598923632	1
0	1431	536.334844001368	2
0	1434	536.422964273316	1
0	1440	536.696811047806	2
0	1444	539.981546644896	1
0	1450	543.300691672097	0
0	1477	553.743633863811	1
0	1482	555.144283025355	2
0	1484	555.57674811591	3
0	1485	556.568335784488	2
0	1491	557.968295096297	1
0	1497	558.868323753645	0
0	1506	562.772783257251	1
0	1507	563.508500263489	0
0	1513	564.100221677763	1
0	1514	564.766837222841	0
0	1528	566.813235737571	1
0	1530	567.260284196771	2
0	1532	570.62194702545	1
0	1539	574.51700769267	2
0	1542	575.688350873429	1
0	1547	576.069211365317	0
0	1561	580.489206916225	1
0	1562	580.519787883041	0
0	1568	580.561770956089	1
0	1569	581.847352543512	0
0	1596	589.773952749341	1
0	1602	595.328315361713	2
0	1605	597.398945495428	3
0	1606	597.508115769574	2
0	1611	597.879086940621	1
0	1616	598.271194239245	0
0	1627	602.693090275137	1
0	1631	604.094646251343	2
0	1633	604.652856790413	1
0	1640	607.809292942095	2
0	1641	607.82650569113	1
0	1646	608.243319540989	0
0	1685	625.340623916132	1
0	1687	627.227788046688	2
0	1692	629.50258416176	1
0	1698	630.385661039504	0
0	1719	638.758579325086	1
0	1720	638.941396517036	0
0	1727	639.677952228952	1
0	1728	641.533247085269	0
0	1736	643.689908999824	1
0	1738	644.771307524235	2
0	1739	645.349020944576	1
0	1744	646.138933934742	0
0	1756	652.227635751373	1
0	1758	654.118902330223	0
0	1766	655.892920857219	1
0	1768	657.857759893887	0
0	1788	659.96570118608	1
0	1793	661.760306701158	0
0	1814	671.601044086023	1
0	1818	673.995084567724	2
0	1821	674.091839136941	1
0	1827	676.002598390809	0
0	1843	681.194644241752	1
0	1844	684.102368003656	0
0	1868	687.459415635868	1
0	1869	687.589696386254	0
0	1883	692.237209071485	1
0	1884	694.616931141692	0
0	1898	696.647876615026	1
0	1900	697.692745569747	2
0	1904	699.505035702596	1
0	1911	699.886718488954	0
0	1917	700.135204791995	1
0	1922	701.892843925714	2
0	1923	702.125467375777	1
0	1930	702.426947455327	2
0	1931	702.507694204079	1
0	1938	703.839027855299	0
0	1945	706.854075783516	1
0	1946	707.023910714558	0
0	1956	707.943832623552	1
0	1958	708.480435688463	2
0	1960	708.590506644981	3
0	1962	710.745280695512	4
0	1964	713.783076929627	5
0	1967	715.309796277318	4
0	1972	717.413234335191	3
0	1978	717.819469714859	2
0	1987	719.510325658428	3
0	1994	725.459988202583	2
0	2000	725.618137176536	3
0	2002	726.432313394301	4
0	2003	726.66002658402	3
0	2011	727.732199537706	2
0	2018	730.141969368985	1
0	2024	732.502513715119	0
0	2041	738.610661378546	1
0	2045	741.445072478286	2
0	2046	742.332449518423	1
0	2052	742.63743349402	2
0	2054	742.710556173415	3
0	2058	745.473132338415	2
0	2064	746.027288809889	3
0	2067	747.543117229688	2
0	2072	748.323746527906	1
0	2077	748.345169065759	0
0	2081	748.373137074747	1
0	2088	749.145810142786	2
0	2093	753.961341504012	1
0	2098	754.754660118445	0
0	2113	755.876516965479	1
0	2114	756.465650238094	0
0	2135	763.317991021375	1
0	2136	765.161848494636	0
0	2169	774.094012513489	1
0	2171	775.578391089649	2
0	2174	780.321101674157	1
0	2179	781.275279161087	0
0	2202	786.011748905035	1
0	2203	789.230877426432	0
0	2210	790.841818993824	1
0	2213	792.773203628948	0
0	2261	804.617236272434	1
0	2263	804.81714151718	2
0	2266	809.191520350246	1
0	2273	809.780638756373	2
0	2275	810.93137687475	3
0	2276	811.574474474843	2
0	2282	813.69024623965	1
0	2288	813.778056408614	2
0	2289	814.094344243028	1
0	2294	815.869006113127	0
0	2324	830.604916335604	1
0	2327	832.60452248022	0
0	2346	838.437864683979	1
0	2348	840.738653932678	2
0	2349	840.853436477241	1
0	2356	841.502717460673	0
0	2368	845.050277882628	1
0	2375	847.951781586114	2
0	2378	850.219827601514	1
0	2385	851.783851360036	2
0	2386	852.244698336707	1
0	2393	853.444089414416	2
0	2395	854.122762935128	3
0	2399	855.64608242429	4
0	2400	856.119210005106	3
0	2405	856.161821362575	2
0	2411	856.773677850306	1
0	2416	857.587281835332	0
0	2424	859.017092537553	1
0	2425	859.896745511722	0
0	2429	860.787553566552	1
0	2431	861.607675489313	2
0	2433	863.051244780089	3
0	2441	868.391469586	4
0	2443	868.722606742407	5
0	2445	870.710634783686	6
0	2450	874.251251126314	5
0	2454	876.868276351433	6
0	2457	878.984949063332	5
0	2465	881.932641138352	6
0	2466	882.498492298522	5
0	2471	883.156502119321	4
0	2477	884.518314818207	5
0	2479	886.517309496358	6
0	2482	891.19236036494	5
0	2487	892.344501805655	4
0	2493	897.648560780468	3
0	2498	898.983264863693	2
0	2505	906.552786731401	1
0	2513	911.547573813939	0
0	2524	912.652713481693	1
0	2526	914.359403079799	2
0	2529	914.962230573755	1
0	2535	917.1316697307	0
0	2551	923.540117244269	1
0	2553	923.63848636619	2
0	2554	923.837956209268	1
0	2562	926.007575554941	0
0	2571	931.407751410085	1
0	2573	931.616027636455	2
0	2574	931.80126662444	1
0	2581	932.010215560454	2
0	2582	932.288727568354	1
0	2588	934.158040423814	0
0	2614	939.33746061921	1
0	2617	939.367230040594	0
0	2623	939.38172329669	1
0	2626	941.333916165113	2
0	2628	942.921237013769	3
0	2629	944.949043373403	2
0	2635	945.550794930022	3
0	2637	947.223155222131	4
0	2638	947.561919506441	3
0	2644	949.981991208923	4
0	2648	954.281009404489	5
0	2649	954.349566032915	4
0	2654	955.477104490407	3
0	2659	955.985304353812	2
0	2665	956.720991304194	3
0	2668	957.611528339672	4
0	2671	958.432179855114	5
0	2676	959.144291364368	6
0	2677	959.449821643538	5
0	2683	960.70036995308	4
0	2689	962.833104005806	3
0	2694	963.777615676177	2
0	2699	966.136177812472	1
0	2704	970.021067563281	0
0	2722	978.185930040522	1
0	2723	979.267715010532	0
0	2729	979.321457420512	1
0	2730	981.285725130908	0
0	2753	989.614645983211	1
0	2757	997.750303037958	2
0	2759	998.064155758544	3
0	2764	998.470612287294	2
0	2772	1000.056597016188	3
0	2773	1001.550715883217	2
0	2778	1002.462573512735	1
0	2784	1003.422347959496	0
0	2799	1009.429544214323	1
0	2800	1011.694315452634	0
0	2826	1021.343946177082	1
0	2828	1022.830758239902	2
0	2831	1024.841397826632	1
0	2839	1025.978672916892	0
0	2853	1033.219589941425	1
0	2855	1033.316802688134	2
0	2857	1033.729807117619	3
0	2860	1037.736447981639	2
0	2865	1038.47309251521	1
0	2872	1039.357211005982	0
0	2886	1049.551139274575	1
0	2887	1049.606685480885	0
0	2893	1050.050106064194	1
0	2894	1050.39522976524	0
0	2910	1055.595393205076	1
0	2914	1057.402887802312	0
0	2925	1058.157202959604	1
0	2926	1058.994790307816	0
0	2937	1067.727229586355	1
0	2943	1070.709665856993	2
0	2948	1071.464213759529	1
0	2952	1071.642644142125	2
0	2954	1072.099409170685	3
0	2961	1074.593880894422	2
0	2967	1074.760986760695	3
0	2970	1076.54093138675	4
0	2972	1077.313727702736	5
0	2974	1077.559658628748	6
0	2976	1079.150978658909	7
0	2977	1085.473769316443	6
0	2983	1086.02889350427	5
0	2992	1088.679339209806	6
0	2993	1088.747550105034	5
0	2998	1089.591766674057	4
0	3005	1092.734683353224	3
0	3011	1093.22313698087	4
0	3013	1094.105019864996	5
0	3017	1095.19261701696	6
0	3019	1096.293103567903	7
0	3021	1099.7292357578	8
0	3022	1101.438012683166	7
0	3027	1101.615847365323	6
0	3032	1101.922164748806	5
0	3037	1103.119954364339	4
0	3041	1103.20001797493	5
0	3047	1104.728307362313	6
0	3051	1105.62945207426	7
0	3054	1109.059365613445	6
0	3061	1111.543823077481	7
0	3063	1113.352373714833	8
0	3065	1115.491902045154	9
0	3067	1117.804777266053	10
0	3068	1120.09815370476	9
0	3073	1120.425590063414	8
0	3080	1121.39049376222	7
0	3085	1121.571112962119	6
0	3091	1123.21778030845	5
0	3097	1123.5917013135	6
0	3102	1125.444939194486	7
0	3104	1126.3721742088	6
0	3109	1126.664327264263	5
0	3114	1128.166331579315	4
0	3122	1130.543175072855	5
0	3123	1130.943845423398	4
0	3127	1132.42735113439	5
0	3131	1135.972677221822	6
0	3135	1137.81672735453	7
0	3137	1142.19563247961	8
0	3140	1143.1440720849	7
0	3144	1145.93902297613	8
0	3146	1146.58351474964	9
0	3152	1148.033564760973	8
0	3160	1150.432996001791	9
0	3164	1153.460482950783	10
0	3165	1154.120694786555	9
0	3179	1162.349219516296	8
0	3185	1165.083027817589	9
0	3187	1165.713031722841	10
0	3188	1165.8679511198	9
0	3195	1166.99109031209	10
0	3198	1167.69689188348	11
0	3202	1172.016696207885	12
0	3203	1173.555845760504	11
0	3210	1174.386721707672	10
0	3219	1175.428188147701	9
0	3224	1175.605730244178	8
0	3234	1178.665289163144	9
0	3235	1178.775576850169	8
0	3242	1179.716964843669	9
0	3243	1180.116425899195	8
0	3250	1182.164121790574	7
0	3256	1183.128524700444	8
0	3258	1183.501714637335	7
0	3266	1186.558196159111	6
0	3273	1188.261010395898	7
0	3274	1189.396201245683	6
0	3281	1191.657917102295	7
0	3282	1193.133588907226	6
0	3288	1193.384386252663	7
0	3291	1193.837549981097	6
0	3298	1198.090213145201	5
0	3306	1203.136676118148	4
0	3312	1203.643932062896	5
0	3313	1203.761125739017	4
0	3321	1205.973011957651	3
0	3329	1208.191149377429	4
0	3330	1209.067507891229	3
0	3335	1210.126167394098	2
0	3342	1211.658951272133	1
0	3349	1212.608289787804	2
0	3352	1215.032253897509	1
0	3357	1215.44409142898	0
0	3363	1215.656923742385	1
0	3367	1220.735032276367	2
0	3368	1221.081624672361	1
0	3374	1223.524312355183	0
0	3401	1232.154418043034	1
0	3403	1233.389996326463	2
0	3404	1233.718961729755	1
0	3410	1243.110097507821	0
0	3416	1243.557898859097	1
0	3419	1245.46457911257	2
0	3422	1249.175807144601	1
0	3427	1249.529509341765	0
0	3460	1260.619619992075	1
0	3464	1261.587021252503	2
0	3465	1262.444513439006	1
0	3471	1263.14050461048	2
0	3474	1266.89148076232	3
0	3475	1270.45898818071	2
0	3481	1272.344423115889	1
0	3488	1273.481168067885	2
0	3489	1275.087157365803	1
0	3497	1276.949057316472	2
0	3498	1278.071478794627	1
0	3505	1278.86444605044	0
0	3517	1280.730968375205	1
0	3518	1280.787080290353	0
0	3524	1281.059709196152	1
0	3527	1282.609087681029	0
0	3538	1286.368470475154	1
0	3539	1289.260426517863	0
0	3548	1289.905074008563	1
0	3555	1291.555193718694	0
0	3570	1294.185851256348	1
0	3574	1297.274530938687	0
0	3582	1299.379693062081	1
0	3583	1300.77184982936	0
0	3604	1304.621176428729	1
0	3608	1304.722270304747	0
0	3620	1315.883802058398	1
0	3621	1316.676715067752	0
0	3632	1317.338577733006	1
0	3638	1319.976029127152	2
0	3639	1320.84906860482	1
0	3645	1323.056555126349	0
0	3651	1323.549304090666	1
0	3654	1323.982519559603	2
0	3656	1324.021522488318	3
0	3658	1324.418842275995	2
0	3665	1327.880041554406	1
0	3670	1329.155835001573	0
0	3681	1330.227863739512	1
0	3683	1330.535838924803	0
0	3689	1331.472643006599	1
0	3692	1339.360848774716	2
0	3694	1341.568849351405	3
0	3695	1345.286739964902	2
0	3702	1346.783945181476	3
0	3705	1348.654653237014	2
0	3712	1352.200613618003	1
0	3718	1354.86632556884	0
0	3724	1356.051726210342	1
0	3726	1359.083184958812	2
0	3727	1359.597308074856	1
0	3733	1360.152884582175	2
0	3736	1361.112814695106	3
0	3737	1362.723219275077	2
0	3743	1364.271808207346	1
0	3750	1365.606211119547	0
0	3757	1368.498792112513	1
0	3761	1371.437785359001	2
0	3762	1371.876285937671	1
0	3770	1375.549310235612	0
0	3776	1376.105929962664	1
0	3779	1379.861705766288	0
0	3792	1380.902079060253	1
0	3793	1383.974798746354	0
0	3804	1384.487489160925	1
0	3805	1384.980055219604	0
0	3826	1394.79993241648	1
0	3829	1395.609012417412	0
0	3849	1402.001506824014	1
0	3851	1402.41849648067	2
0	3853	1407.492226370491	3
0	3854	1407.849317117983	2
0	3860	1409.67174820999	3
0	3862	1409.686941015902	4
0	3863	1412.029802188634	3
0	3870	1413.714079446341	4
0	3872	1414.256615353758	5
0	3876	1418.764020711992	4
0	3882	1419.023251356221	5
0	3887	1422.279273050711	6
0	3889	1423.516789626873	7
0	3892	1428.930601456107	6
0	3898	1429.309864360629	5
0	3904	1431.160243309823	4
0	3911	1431.718940852399	5
0	3918	1433.556128769956	4
0	3924	1433.890541165942	5
0	3926	1434.833789383997	6
0	3928	1435.164880893784	5
0	3937	1436.82659362352	6
0	3939	1437.523093511128	7
0	3941	1437.939905661689	8
0	3942	1439.823309418779	7
0	3953	1444.720345764269	8
0	3955	1445.233584858337	9
0	3957	1446.415553783785	10
0	3959	1446.699785834962	11
0	3960	1450.41890055438	10
0	3965	1450.509643717157	9
0	3970	1451.2058473556	8
0	3974	1451.724608843765	9
0	3980	1457.373260798947	10
0	3981	1457.965332301556	9
0	3986	1458.910998403567	8
0	3992	1459.300485143866	9
0	3993	1459.656256162812	8
0	3998	1461.782614516322	7
0	4004	1464.058571631527	8
0	4005	1464.408043726235	7
0	4012	1469.247238471023	6
0	4017	1469.287227558245	5
0	4026	1471.95638499794	6
0	4029	1473.925168070952	7
0	4031	1475.893150081254	8
0	4033	1476.096632303301	9
0	4034	1476.662867090652	8
0	4039	1477.467525259158	7
0	4044	1477.646137007958	6
0	4051	1479.194987724412	5
0	4056	1481.553140446943	4
0	4061	1483.352174272928	3
0	4066	1486.631019983081	2
0	4071	1488.425330182439	1
0	4077	1489.189976134525	2
0	4078	1489.279627183074	1
0	4084	1493.435467338559	2
0	4094	1495.880664015102	3
0	4098	1496.593761050249	4
0	4099	1497.485675230688	3
0	4105	1497.560388650187	4
0	4106	1497.839433901933	3
0	4111	1499.049287840824	2
0	4118	1502.545116882511	1
0	4122	1503.023030219898	2
0	4126	1504.500233731111	1
0	4131	1504.838640328836	0
0	4135	1504.9552572946	1
0	4140	1508.159915996409	0
0	4146	1510.595868222823	1
0	4154	1513.897186684625	2
0	4156	1517.366286750466	3
0	4157	1518.611777803526	2
0	4167	1523.037843926838	1
0	4174	1523.998065725932	2
0	4175	1524.886174018733	1
0	4180	1526.647296755611	0
0	4191	1527.58073899344	1
0	4192	1527.958526148907	0
0	4229	1542.041327633314	1
0	4232	1545.418046186844	0
0	4238	1545.467794587628	1
0	4240	1554.124041098138	0
0	4249	1554.897759772403	1
0	4252	1557.565739816873	0
0	4269	1565.616093552617	1
0	4270	1566.05635039432	0
0	4285	1567.417883521123	1
0	4291	1570.19241368195	2
0	4292	1572.565531509375	1
0	4298	1573.305490186089	0
0	4310	1575.491121365572	1
0	4311	1576.050346640298	0
0	4344	1581.14730600972	1
0	4348	1582.632353572965	0
0	4367	1588.112284504806	1
0	4370	1588.350125346878	2
0	4372	1589.056427730831	3
0	4373	1589.117765585775	2
0	4380	1590.054753666282	3
0	4382	1591.273105763816	4
0	4383	1592.992446355773	3
0	4388	1594.671047305386	2
0	4395	1595.135301715763	3
0	4398	1596.983767622415	4
0	4399	1597.67729697706	3
0	4405	1598.539873584331	2
0	4413	1600.339634518382	3
0	4414	1603.367623553818	2
0	4420	1604.490473504151	1
0	4425	1605.476563617576	0
0	4446	1608.901476653016	1
0	4449	1612.199268890518	0
0	4459	1612.86610908722	1
0	4461	1614.973581473244	2
0	4463	1616.697350376924	3
0	4467	1616.965317402293	4
0	4468	1619.227787385238	3
0	4473	1619.58845730386	2
0	4482	1621.502928297352	1
0	4489	1623.117794248773	0
0	4507	1625.024633182121	1
0	4508	1625.04699226668	0
0	4534	1634.79049407984	1
0	4538	1637.810873440805	2
0	4542	1639.593474214173	3
0	4547	1641.723412006034	2
0	4554	1642.261050342477	1
0	4562	1643.99034651177	0
0	4602	1660.129217884879	1
0	4604	1660.999336019721	2
0	4607	1661.875155146242	1
0	4614	1662.315446703834	0
0	4621	1663.532904180864	1
0	4626	1666.040515642068	2
0	4628	1667.963483283518	3
0	4630	1668.223762325385	4
0	4631	1669.8809093303	3
0	4636	1670.417994779819	2
0	4645	1673.596068078555	1
0	4651	1673.599093068465	2
0	4652	1674.024136761092	1
0	4658	1674.739459991478	2
0	4659	1674.853453090304	1
0	4669	1678.969825133982	0
0	4700	1685.575767242546	1
0	4701	1685.806904454506	0
0	4733	1695.403995463658	1
0	4735	1695.57450300875	2
0	4738	1696.718455917197	1
0	4744	1697.647216444818	2
0	4746	1698.14092187246	3
0	4751	1699.491598693556	2
0	4758	1700.227306394668	1
0	4764	1700.312443816388	2
0	4765	1701.013879064012	1
0	4772	1704.768084348889	0
0	4776	1705.695081577034	1
0	4780	1707.63829755805	0
0	4788	1710.769270879679	1
0	4794	1713.313811308448	2
0	4798	1719.597793878454	1
0	4804	1721.678829502985	0
0	4816	1723.746228653228	1
0	4818	1724.018242637099	2
0	4819	1726.011459669511	1
0	4825	1726.507343632595	2
0	4826	1726.738184274456	1
0	4834	1728.541415572206	0
0	4840	1728.832962279893	1
0	4845	1731.332724547347	2
0	4850	1733.769491498272	1
0	4858	1735.067349472507	0
0	4865	1737.490096232496	1
0	4869	1738.70005567981	2
0	4872	1742.684895220989	1
0	4878	1744.043858276931	2
0	4879	1744.39805970818	1
0	4884	1745.245593199105	0
0	4897	1749.959608830537	1
0	4901	1753.008546477378	0
0	4913	1754.371161165786	1
0	4914	1755.215423770886	0
0	4930	1756.816193170229	1
0	4933	1758.662768073342	2
0	4935	1762.93440739638	1
0	4941	1763.381488151842	0
0	4960	1768.061369239471	1
0	4962	1768.813555484278	2
0	4967	1772.358394189218	1
0	4974	1774.802714769964	2
0	4976	1776.111367813777	3
0	4977	1777.488619578184	2
0	4982	1777.830345527408	1
0	4987	1777.922775231646	0
0	5021	1787.503306779644	1
0	5023	1787.752760488179	2
0	5025	1790.562987765995	1
0	5030	1791.550086968247	0
0	5047	1795.723816654846	1
0	5050	1797.063926510351	0
0	5065	1799.10908149055	1
0	5068	1800.551136990405	0
0	5075	1802.261392350905	1
0	5077	1802.415874170097	2
0	5080	1803.32097178778	3
0	5081	1804.651406605778	2
0	5088	1805.146329558973	1
0	5095	1807.598685591127	0
0	5115	1812.138552051852	1
0	5117	1813.6144587337	0
0	5133	1815.476328286682	1
0	5137	1817.084336655462	2
0	5139	1819.117633813054	1
0	5145	1820.120674400287	2
0	5147	1821.358168555401	1
0	5154	1822.907227751577	0
0	5172	1827.025679757962	1
0	5174	1827.343037460048	2
0	5176	1827.761361219078	3
0	5178	1828.027838302939	4
0	5182	1829.952583654081	3
0	5188	1829.962460436504	4
0	5193	1831.481912879559	5
0	5195	1836.949807147091	6
0	5196	1837.220584316113	5
0	5202	1839.28816093442	6
0	5207	1840.728157528669	7
0	5209	1843.407586575922	8
0	5210	1843.814133802275	7
0	5216	1843.942838832869	8
0	5218	1844.473565610318	9
0	5220	1845.28751552882	8
0	5228	1847.12797268102	7
0	5233	1847.280143974329	6
0	5238	1847.373973136794	5
0	5243	1850.438766356119	4
0	5247	1851.754284009154	5
0	5251	1851.924109584737	6
0	5254	1855.660284675949	5
0	5260	1855.755181144708	4
0	5266	1856.057182121474	5
0	5268	1856.912331972253	6
0	5270	1859.191071933916	5
0	5276	1862.856980384654	6
0	5279	1865.38081868634	5
0	5286	1865.565011940725	4
0	5292	1868.828855039694	5
0	5293	1869.378277584795	4
0	5304	1871.581784730026	5
0	5306	1873.268400710055	6
0	5308	1873.324895547292	7
0	5310	1874.368638044137	6
0	5315	1874.505980057233	5
0	5321	1874.521515451758	6
0	5326	1877.53823344553	7
0	5328	1879.899491366245	8
0	5331	1881.669261296807	7
0	5337	1881.93096731306	8
0	5338	1883.672514219328	7
0	5342	1884.423295564768	8
0	5348	1886.898426599161	7
0	5353	1887.435781916019	6
0	5358	1888.766787224437	5
0	5363	1889.229879542659	4
0	5367	1889.57137472531	5
0	5373	1894.527260576303	4
0	5381	1899.057520807526	5
0	5383	1899.137552147366	6
0	5384	1899.358449079263	5
0	5391	1900.619714011521	6
0	5392	1900.650490903588	5
0	5399	1903.733340028008	4
0	5407	1904.583698430809	5
0	5408	1906.058686127415	4
0	5414	1906.417162773913	3
0	5419	1906.476729815007	2
0	5424	1906.519293904928	1
0	5428	1906.532416529637	2
0	5434	1908.570792004378	3
0	5436	1908.840375212776	4
0	5437	1911.205622502932	3
0	5442	1911.441456181786	2
0	5448	1913.62963448769	3
0	5449	1920.628485447503	2
0	5460	1922.515290232674	1
0	5466	1923.998535837772	2
0	5468	1925.422728605312	1
0	5474	1926.069756675222	2
0	5475	1926.676396855939	1
0	5481	1928.81220074383	2
0	5483	1929.074805585342	3
0	5492	1931.517762957176	4
0	5494	1933.461818480695	3
0	5502	1936.094408508867	4
0	5504	1936.875238533571	3
0	5510	1938.54366687205	2
0	5515	1938.776878546642	1
0	5520	1938.881562546338	0
0	5526	1941.70280321333	1
0	5527	1942.05838843864	0
0	5535	1943.831303731435	1
0	5536	1945.119328778764	0
0	5554	1952.347986451729	1
0	5556	1952.621048703248	2
0	5557	1953.668775708233	1
0	5563	1954.185905990681	2
0	5566	1956.470098804319	3
0	5571	1960.964224182636	4
0	5573	1961.072289046842	5
0	5574	1965.017969234979	4
0	5585	1971.739504507693	3
0	5590	1972.177608769788	2
0	5597	1973.94478352847	1
0	5602	1974.223182588749	0
0	5620	1980.241161598706	1
0	5622	1981.949680362535	2
0	5624	1984.790417710556	3
0	5627	1986.293701682083	2
0	5632	1987.473631463479	1
0	5641	1990.607596257255	0
0	5655	1995.270320258028	1
0	5656	1995.764525627381	0
0	5665	1996.58131577099	1
0	5666	1996.964446775249	0
0	5684	2001.772435062884	1
0	5685	2002.12924620265	0
0	5721	2010.372903334536	1
0	5722	2012.41733265046	0
0	5734	2016.24873800944	1
0	5735	2016.634104611774	0
0	5748	2019.189837908112	1
0	5750	2020.824187595047	0
0	5756	2022.037594158922	1
0	5759	2022.724566090905	0
0	5776	2026.954257055896	1
0	5778	2027.892918282499	0
0	5790	2030.831437605961	1
0	5792	2031.420350605889	0
0	5798	2031.454976512733	1
0	5799	2032.603162505203	0
0	5811	2040.815211670592	1
0	5814	2043.140592635875	0
0	5832	2044.868884800359	1
0	5833	2045.101819186942	0
0	5851	2048.118464433978	1
0	5856	2050.679871084483	0
0	5863	2052.69599526305	1
0	5864	2053.569760813159	0
0	5880	2057.827720105142	1
0	5881	2058.248714014697	0
0	5887	2058.859066268634	1
0	5890	2059.300830660872	0
0	5908	2063.464122634376	1
0	5909	2064.392311236099	0
0	5915	2064.512821192709	1
0	5918	2067.135172192129	0
0	5924	2068.196800797767	1
0	5925	2068.968300534781	0
0	5939	2072.689683194075	1
0	5941	2073.221354210927	2
0	5942	2074.242846410079	1
0	5949	2074.357516409265	2
0	5950	2074.97387242194	1
0	5956	2077.061446427915	2
0	5960	2081.163270644654	1
0	5966	2081.436936923014	2
0	5969	2083.886637615705	3
0	5971	2085.169688021377	4
0	5972	2085.613199622644	3
0	5978	2086.762819981219	2
0	5984	2087.677037066306	1
0	5989	2088.501334024571	0
0	6001	2092.667457593928	1
0	6005	2093.222576762508	2
0	6007	2093.288464658756	3
0	6008	2094.081375413413	2
0	6018	2097.097329953343	3
0	6020	2098.997586603002	2
0	6029	2101.345278246571	3
0	6030	2102.994157704336	2
0	6035	2103.156254096607	1
0	6042	2104.005321459549	0
0	6053	2107.249680410843	1
0	6055	2109.815653420096	0
0	6078	2118.08007149776	1
0	6081	2120.760210385714	2
0	6086	2121.984530214006	1
0	6093	2122.825437773089	0
0	6105	2125.78497872229	1
0	6107	2126.950684565768	2
0	6114	2128.812206730587	3
0	6116	2129.031010245674	4
0	6118	2129.338583853919	5
0	6119	2131.825931323498	4
0	6127	2132.21445533793	3
0	6132	2132.485100406824	2
0	6140	2134.096784356708	1
0	6145	2134.96563311503	0
0	6159	2137.714551215606	1
0	6160	2137.939862004848	0
0	6180	2142.375079484045	1
0	6181	2144.262579301276	0
0	6203	2150.704680088905	1
0	6206	2153.245755871046	0
0	6217	2158.051442191602	1
0	6219	2159.728413654425	2
0	6220	2161.211509483282	1
0	6226	2161.74324926571	2
0	6228	2163.639673936645	1
0	6234	2164.271548664599	2
0	6237	2167.310812967187	1
0	6243	2170.658931061771	0
0	6264	2176.009446939015	1
0	6268	2178.095671984549	2
0	6274	2181.781802270013	3
0	6281	2184.92421304449	2
0	6287	2185.091026675912	3
0	6292	2185.906185529832	4
0	6294	2186.352567381109	5
0	6297	2188.37983755155	6
0	6299	2190.524401105911	7
0	6302	2193.510713716132	6
0	6310	2193.950006726662	7
0	6311	2196.237676912806	6
0	6317	2196.65829456779	7
0	6318	2196.673905514384	6
0	6323	2197.992925758149	5
0	6327	2198.97164051659	6
0	6330	2199.286349448654	5
0	6343	2207.107718004891	6
0	6345	2207.38226622145	7
0	6346	2207.861867864337	6
0	6352	2209.204148260821	7
0	6354	2212.406933020767	6
0	6361	2214.929382040663	7
0	6364	2216.940501801316	6
0	6371	2217.722334300713	7
0	6372	2217.745629316727	6
0	6377	2217.830420640962	5
0	6382	2218.346308185539	4
0	6389	2222.712909925206	5
0	6391	2223.880704753957	4
0	6399	2225.396315703172	3
0	6404	2229.121898344503	2
0	6409	2229.162333919735	1
0	6416	2230.592052941244	0
0	6433	2231.835957944057	1
0	6434	2232.034672317665	0
0	6455	2236.412596708747	1
0	6460	2239.685077551029	0
0	6471	2243.69150955139	1
0	6474	2245.764566685183	0
0	6487	2247.295224724762	1
0	6493	2252.690391345319	2
0	6494	2255.354010727558	1
0	6500	2256.475380749634	0
0	6506	2257.115257369737	1
0	6508	2257.99161704737	2
0	6510	2258.687963424474	1
0	6515	2259.311061409576	0
0	6523	2260.538283912536	1
0	6527	2262.02699307992	2
0	6531	2262.435227111023	3
0	6532	2265.537936313718	2
0	6537	2266.156993495347	1
0	6542	2267.350628902626	0
0	6555	2273.74807169787	1
0	6559	2277.401346691172	2
0	6560	2280.305601901878	1
0	6569	2282.871239035096	0
0	6591	2292.166653179138	1
0	6594	2295.448772683203	0
0	6600	2295.74431375735	1
0	6601	2295.747998992797	0
0	6613	2297.191300389915	1
0	6616	2299.58640529976	2
0	6617	2299.641025259713	1
0	6622	2300.062607847895	0
0	6628	2301.086908615667	1
0	6633	2304.341334362184	2
0	6635	2308.62640954072	1
0	6646	2311.088688529984	2
0	6647	2311.280246844209	1
0	6653	2312.081638790095	0
0	6659	2312.1047059303	1
0	6661	2313.096249053733	0
0	6670	2314.920996539108	1
0	6672	2316.496931825259	2
0	6676	2318.23741597841	1
0	6681	2318.279237820781	0
0	6701	2328.319247538811	1
0	6702	2328.44987508822	0
0	6725	2333.751175864128	1
0	6727	2333.754897739877	2
0	6731	2335.913883379492	3
0	6732	2337.112359346966	2
0	6738	2337.426926922292	3
0	6740	2340.859597458618	2
0	6745	2341.189220307204	1
0	6750	2341.228414063011	0
0	6759	2342.066821727531	1
0	6764	2344.660996670278	0
0	6782	2352.056618461163	1
0	6785	2354.841840109263	0
0	6792	2355.617936354759	1
0	6795	2358.152348262722	0
0	6807	2362.667977393168	1
0	6810	2365.717037506409	0
0	6823	2369.954330743807	1
0	6825	2369.98947317038	2
0	6826	2370.976748277262	1
0	6832	2372.166491488175	0
0	6855	2385.239957519041	1
0	6858	2386.023237622138	0
0	6864	2386.299758427957	1
0	6866	2387.202387443657	0
0	6870	2387.569172509752	1
0	6874	2388.550827804686	0
0	6881	2391.344412504258	1
0	6884	2393.009936221635	2
0	6888	2393.746756570737	3
0	6890	2394.05619235122	4
0	6892	2395.08714873659	5
0	6893	2395.275580264148	4
0	6898	2397.529541574725	3
0	6905	2398.335759576959	2
0	6909	2400.112368675415	3
0	6919	2404.469894490304	4
0	6923	2405.762674526586	5
0	6925	2406.26430699044	6
0	6926	2406.381236068343	5
0	6935	2407.081143949479	6
0	6936	2409.644792750265	5
0	6941	2410.414276545324	4
0	6953	2414.977483647663	5
0	6954	2415.0228673647	4
0	6960	2416.478157297432	5
0	6962	2416.674154197779	6
0	6964	2418.236381214643	5
0	6969	2419.054151714623	4
0	6975	2420.39113796245	5
0	6977	2421.26537051661	4
0	6983	2422.944473242563	5
0	6986	2425.420829379128	6
0	6990	2432.487656651851	7
0	6994	2435.736985701593	8
0	6995	2437.598008132123	7
0	7001	2438.908909048225	6
0	7008	2445.059209862903	5
0	7013	2446.152551693961	4
0	7018	2446.449308505572	3
0	7026	2451.5560313795	4
0	7029	2453.528617813589	3
0	7035	2454.86869183885	2
0	7040	2455.994542554231	1
0	7045	2456.143347170681	0
0	7057	2459.032693638784	1
0	7061	2459.30624756955	2
0	7062	2460.230130987653	1
0	7067	2460.481027379937	0
0	7071	2460.85983177618	1
0	7073	2462.425450217777	2
0	7078	2463.759677527722	1
0	7083	2465.338195860912	0
0	7094	2467.761476940235	1
0	7097	2470.005226362021	0
0	7109	2472.135000856126	1
0	7111	2472.741767709852	0
0	7124	2474.187419104529	1
0	7125	2474.56473776898	0
0	7136	2479.754481784163	1
0	7137	2479.865682984838	0
0	7150	2483.696343863311	1
0	7152	2484.656651552818	2
0	7153	2487.120137392937	1
0	7160	2488.442185847059	2
0	7162	2489.146262937658	3
0	7163	2490.775288922003	2
0	7169	2491.702246040218	1
0	7174	2492.966583663599	0
0	7190	2495.720457968366	1
0	7192	2497.317460401419	2
0	7196	2502.773141875878	1
0	7204	2504.374112077097	2
0	7205	2508.794996915369	1
0	7211	2510.652673601057	0
0	7228	2520.467445541731	1
0	7234	2525.106254766757	2
0	7235	2526.093924230859	1
0	7244	2530.071005112532	2
0	7245	2530.874216870246	1
0	7252	2532.80210093533	2
0	7254	2532.853953162231	3
0	7255	2532.868188520847	2
0	7262	2535.32175187629	3
0	7264	2535.418543620908	4
0	7266	2535.471436128193	5
0	7268	2536.890336442188	6
0	7269	2538.063334299607	5
0	7275	2539.567567356323	6
0	7276	2539.870664827495	5
0	7281	2540.103595518351	4
0	7285	2540.337628442827	5
0	7287	2540.662947638377	6
0	7289	2541.210777884832	7
0	7295	2542.54832835002	8
0	7298	2543.362380924124	7
0	7307	2548.901220688064	8
0	7309	2550.429314178517	9
0	7311	2551.368735933581	10
0	7314	2562.827437024787	9
0	7320	2563.101968425292	10
0	7322	2564.321764980037	9
0	7327	2564.83782006115	8
0	7335	2566.375136502045	9
0	7337	2567.34832832039	10
0	7338	2569.322768091316	9
0	7344	2569.324147264949	10
0	7345	2569.949458891372	9
0	7354	2575.039349239631	8
0	7359	2576.258197658985	7
0	7365	2577.338591235849	6
0	7372	2580.568055189148	5
0	7378	2582.003253262657	4
0	7387	2584.068330397593	5
0	7389	2584.618886197026	6
0	7391	2588.327054287345	7
0	7392	2589.365440107065	6
0	7398	2589.675317480026	7
0	7400	2592.991618394766	6
0	7406	2594.358157054216	5
0	7412	2595.362410408871	6
0	7414	2595.409001136617	7
0	7415	2595.752911431825	6
0	7420	2596.312617616202	5
0	7425	2597.483253569814	4
0	7435	2602.362106747098	3
0	7443	2607.426346041168	4
0	7444	2608.156516715367	3
0	7456	2609.845828637866	4
0	7458	2610.755017415273	5
0	7460	2613.060578875084	4
0	7465	2613.900165902242	3
0	7469	2613.982562101763	4
0	7476	2622.496854831331	3
0	7481	2622.690738852802	2
0	7489	2625.136161756764	1
0	7494	2625.18194228655	0
0	7511	2635.802391733127	1
0	7513	2637.562178579637	0
0	7538	2642.012049146742	1
0	7542	2648.080078649678	2
0	7546	2649.391251970498	3
0	7549	2650.657264969971	2
0	7555	2651.076085328277	3
0	7556	2651.571542312052	2
0	7563	2653.427807034238	1
0	7570	2655.381372147895	0
0	7589	2665.338005908059	1
0	7590	2665.770737747634	0
0	7605	2668.896868484185	1
0	7608	2669.781589028819	0
0	7637	2680.487082189194	1
0	7638	2681.461915996445	0
0	7652	2685.709454793225	1
0	7659	2691.909404811299	0
0	7681	2696.249977114515	1
0	7687	2705.363191579542	2
0	7688	2707.346738843993	1
0	7696	2708.135842132765	2
0	7698	2708.408623147462	3
0	7705	2710.306744327231	4
0	7706	2710.314266892498	3
0	7712	2710.668085853987	4
0	7713	2711.263476366581	3
0	7718	2712.548075632231	2
0	7724	2714.079017072921	1
0	7729	2714.559268460151	0
0	7735	2716.824476823361	1
0	7736	2716.923699922611	0
0	7740	2719.255814202756	1
0	7744	2720.197988914157	2
0	7746	2721.765351454941	3
0	7750	2725.199049329786	4
0	7756	2727.781557961532	3
0	7761	2728.419441359524	2
0	7768	2729.890105955303	3
0	7770	2729.988659344297	2
0	7776	2731.903305832678	1
0	7782	2731.950328222716	2
0	7783	2732.355603191421	1
0	7790	2736.338372665797	0
0	7809	2738.868883713494	1
0	7811	2740.178111976229	2
0	7814	2742.296372767294	1
0	7821	2746.569094520499	0
0	7843	2756.377856268848	1
0	7844	2757.049935785263	0
0	7850	2758.249773189682	1
0	7851	2758.632097885705	0
0	7869	2763.947520288374	1
0	7870	2764.116236019973	0
0	7899	2775.989447484343	1
0	7903	2780.09221273755	2
0	7905	2782.96938852295	3
0	7906	2783.285566142228	2
0	7912	2783.591647187442	3
0	7913	2784.206961514182	2
0	7921	2785.902159080509	1
0	7927	2789.811782919556	0
0	7937	2796.197340857208	1
0	7938	2797.611707752215	0
0	7944	2799.509054389366	1
0	7946	2799.704243759649	0
0	7952	2799.773066980289	1
0	7953	2799.931281976647	0
0	7964	2801.838135531322	1
0	7966	2803.725381489176	0
0	7977	2804.690953432523	1
0	7979	2805.748624670399	0
0	8024	2819.324038787235	1
0	8026	2822.198318647225	2
0	8028	2823.510398608165	3
0	8029	2825.196607118536	2
0	8035	2826.385761813721	3
0	8039	2827.424262437546	2
0	8045	2829.419583785687	1
0	8050	2830.302630861675	0
0	8060	2832.613934229838	1
0	8064	2835.220612458825	2
0	8074	2841.675059515426	1
0	8080	2843.668154022662	2
0	8085	2848.020153537607	3
0	8086	2849.451731121515	2
0	8092	2849.962241893427	3
0	8097	2851.02381200257	4
0	8098	2851.529959529584	3
0	8105	2854.486045689626	2
0	8112	2859.108761489898	1
0	8117	2860.18610661776	0
0	8145	2869.108328110817	1
0	8150	2871.183993735521	0
0	8162	2877.863968124965	1
0	8165	2883.292658804715	0
0	8174	2886.08530622489	1
0	8175	2887.232215209173	0
0	8189	2890.380656299772	1
0	8192	2896.190083927698	0
0	8203	2902.172500578471	1
0	8204	2904.446510141181	0
0	8215	2906.81719279035	1
0	8221	2909.938235991632	2
0	8225	2911.197370731925	3
0	8226	2911.432519375053	2
0	8232	2912.945322494136	1
0	8237	2913.201760361779	0
0	8245	2914.521064592277	1
0	8247	2915.053619309856	2
0	8250	2920.735860694793	1
0	8261	2923.586259705394	0
0	8267	2924.003354099842	1
0	8268	2924.093069894418	0
0	8283	2926.773212738058	1
0	8285	2927.105989745297	2
0	8286	2927.68927361516	1
0	8293	2929.635866741879	0
0	8303	2931.698285265013	1
0	8304	2932.30649147221	0
0	8311	2935.58195143942	1
0	8314	2936.026542444651	2
0	8317	2938.471016894159	1
0	8323	2938.480510942627	2
0	8324	2939.376656639621	1
0	8330	2942.304419786682	0
0	8336	2942.346688520314	1
0	8338	2942.938027563558	2
0	8341	2944.372994639563	1
0	8346	2945.123501647465	0
0	8356	2949.451390243411	1
0	8358	2953.436290717502	2
0	8360	2954.038781122062	3
0	8363	2955.169903660568	2
0	8370	2960.617892368036	1
0	8376	2960.657225908671	2
0	8383	2963.546422201082	1
0	8387	2963.877921294886	2
0	8389	2966.889535867498	3
0	8393	2967.795299404775	4
0	8396	2974.870796044971	3
0	8402	2975.995811575029	4
0	8404	2980.431880205746	5
0	8407	2981.54854117179	4
0	8415	2986.133355516492	5
0	8416	2986.676799837918	4
0	8424	2989.520320505188	5
0	8425	2989.712175991993	4
0	8434	2994.333933464819	5
0	8435	2994.884428440484	4
0	8440	2995.538283532037	3
0	8447	2997.696077723921	2
0	8455	3000.217768907571	1
0	8461	3000.391074972096	2
0	8463	3001.1119843759	3
0	8464	3002.962632160784	2
0	8470	3003.400867917393	3
0	8472	3003.778755688921	4
0	8475	3007.439517698282	3
0	8481	3007.562829360047	4
0	8484	3009.872446302425	5
0	8491	3013.248315351322	4
0	8498	3013.894410972902	3
0	8503	3014.412337799248	2
0	8515	3024.175682024636	3
0	8521	3028.286822106339	4
0	8522	3028.673927833445	3
0	8529	3031.110814021049	4
0	8533	3033.770493044674	5
0	8534	3036.529814778998	4
0	8543	3038.692217348994	3
0	8548	3039.156942981722	2
0	8554	3039.956216068093	3
0	8561	3045.406106927971	4
0	8564	3047.030609346198	5
0	8565	3047.093152672167	4
0	8570	3048.073472393362	3
0	8577	3048.459437017159	2
0	8586	3053.308352447408	3
0	8588	3054.145764499044	4
0	8590	3059.935845675556	3
0	8595	3060.313261045035	2
0	8600	3060.630453322412	1
0	8606	3067.57575040598	0
0	8631	3071.400691493556	1
0	8633	3073.367078408431	2
0	8638	3079.899386094678	1
0	8644	3083.316944410462	0
0	8655	3085.116613962434	1
0	8656	3085.781786456582	0
0	8667	3089.524037505165	1
0	8669	3090.424845336542	2
0	8671	3090.588387339136	3
0	8673	3091.587493089776	4
0	8675	3092.225049194034	5
0	8679	3092.666257463925	6
0	8682	3094.840836028624	5
0	8688	3096.07269796468	4
0	8695	3096.630352834386	3
0	8703	3100.841892472605	2
0	8710	3101.71898388187	1
0	8720	3103.295688472506	0
0	8726	3103.435989111842	1
0	8730	3105.460883436426	0
0	8741	3106.380228186865	1
0	8744	3106.489694380193	2
0	8746	3107.106762225002	3
0	8747	3108.649381784046	2
0	8752	3109.312677217631	1
0	8760	3112.766976593013	2
0	8762	3112.898125248119	3
0	8764	3115.21192242802	2
0	8769	3115.633074706672	1
0	8774	3115.879447559652	0
0	8780	3119.395033251036	1
0	8784	3120.027343252569	0
0	8791	3120.567561349332	1
0	8793	3124.273784597592	0
0	8822	3135.876342220213	1
0	8831	3136.752560441256	2
0	8832	3137.52013184133	1
0	8837	3139.366313592793	0
0	8848	3140.516629006537	1
0	8850	3140.563378017608	2
0	8852	3140.984102806172	3
0	8854	3142.754917917519	2
0	8863	3145.42711307114	1
0	8868	3145.828708702554	0
0	8891	3153.24363699158	1
0	8896	3157.668883161758	0
0	8906	3159.779585267934	1
0	8909	3160.440386622714	0
0	8918	3162.185582212335	1
0	8924	3163.77924003657	0
0	8964	3173.120403865892	1
0	8966	3173.597837480872	2
0	8970	3178.201386873882	3
0	8972	3179.605975273564	4
0	8973	3179.719364469598	3
0	8979	3180.565865724474	2
0	8985	3185.089055355147	1
0	8993	3187.244344826695	0
0	9008	3194.823702082713	1
0	9009	3197.825874526525	0
0	9020	3199.190068087812	1
0	9022	3200.569191867632	0
0	9045	3210.827441334716	1
0	9049	3213.110854583507	2
0	9052	3217.633969340576	1
0	9059	3218.917975530981	0
0	9080	3225.504152038556	1
0	9083	3228.464408538316	0
0	9089	3228.949498622336	1
0	9090	3228.958529441266	0
0	9097	3230.42944102076	1
0	9101	3234.124880837284	0
0	9117	3235.825238728047	1
0	9121	3237.625913314766	0
0	9138	3242.559470577114	1
0	9141	3243.028572451393	2
0	9142	3246.072205231134	1
0	9150	3247.965220893545	0
0	9160	3252.500206920651	1
0	9161	3254.441032180063	0
0	9167	3254.868375171675	1
0	9168	3256.192375113808	0
0	9179	3260.160453043724	1
0	9180	3260.822278015576	0
0	9186	3262.865410371624	1
0	9188	3266.429892254738	2
0	9190	3266.915738506691	3
0	9193	3271.12596572493	2
0	9198	3272.142894712436	1
0	9208	3276.902371150165	0
0	9225	3279.739727129283	1
0	9226	3280.424935236079	0
0	9240	3283.689008482476	1
0	9242	3288.315590490001	2
0	9244	3288.986978105986	3
0	9247	3289.952771669717	2
0	9254	3292.344797619515	1
0	9260	3292.946185983981	0
0	9274	3297.33661676164	1
0	9276	3297.796743285642	2
0	9282	3298.855495000064	3
0	9287	3304.623179136689	2
0	9294	3305.211341729478	3
0	9297	3306.073758419783	2
0	9303	3307.057685832929	1
0	9308	3307.55347260378	0
0	9315	3308.640246436214	1
0	9316	3310.077010966476	0
0	9337	3319.216643943827	1
0	9338	3319.703823133624	0
0	9344	3322.141308160805	1
0	9347	3323.127122031551	2
0	9348	3323.711018198892	1
0	9355	3325.412421311567	2
0	9359	3331.60925823025	1
0	9366	3332.109748014662	2
0	9369	3340.465793222107	1
0	9374	3341.058536343188	0
0	9381	3341.841852590099	1
0	9385	3345.380323896554	0
0	9393	3348.501270058241	1
0	9395	3348.934506231364	2
0	9396	3350.735210734351	1
0	9402	3353.331437946755	0
0	9414	3354.494461921664	1
0	9415	3355.483435118507	0
0	9457	3367.90738342339	1
0	9458	3369.715755000914	0
0	9512	3392.897469279406	1
0	9516	3394.422197083889	2
0	9520	3397.10399534306	3
0	9523	3398.021251552273	4
0	9524	3399.032575647085	3
0	9530	3400.180565340204	4
0	9534	3400.797905582088	5
0	9535	3401.421474327696	4
0	9543	3407.120397855103	5
0	9544	3407.201289113893	4
0	9553	3409.555052170565	3
0	9558	3409.67001591367	2
0	9563	3410.712008843719	1
0	9568	3411.634410539985	0
0	9574	3414.108503094478	1
0	9575	3416.671780685895	0
0	9591	3430.586085024357	1
0	9592	3433.715713603511	0
0	9596	3435.432126918202	1
0	9598	3435.834789033149	2
0	9600	3436.813450635515	3
0	9605	3438.125627761264	4
0	9608	3441.242445129515	3
0	9619	3446.655709069172	2
0	9625	3447.186170929025	1
0	9631	3449.779945322687	2
0	9632	3450.322771281938	1
0	9639	3453.601408599733	0
0	9646	3454.786427533262	1
0	9648	3454.857435093196	2
0	9651	3458.412624948833	1
0	9656	3460.422737192853	0
0	9664	3463.640471151411	1
0	9665	3466.062945169861	0
0	9677	3469.345891129269	1
0	9678	3471.211164291386	0
0	9699	3477.313030547847	1
0	9705	3481.676807461127	2
0	9707	3482.937519212206	3
0	9709	3483.932920784779	4
0	9712	3486.352386816172	3
0	9720	3487.704296500383	2
0	9727	3488.582371650321	3
0	9728	3490.330835554966	2
0	9738	3493.074126002774	3
0	9741	3496.12583731616	2
0	9746	3498.076652734459	1
0	9754	3503.513518220115	2
0	9755	3505.485677376463	1
0	9762	3506.985849431595	2
0	9764	3510.076088700107	3
0	9765	3510.897374666263	2
0	9771	3512.303364861217	1
0	9781	3518.409902134684	0
0	9789	3520.02123041698	1
0	9791	3521.563610749801	0
0	9817	3531.382544520945	1
0	9818	3531.977156433016	0
0	9847	3547.401412504347	1
0	9848	3547.530722196994	0
0	9855	3549.039937011891	1
0	9856	3549.139753898851	0
0	9866	3555.73612159636	1
0	9871	3556.071824376606	0
0	9879	3556.085528023147	1
0	9881	3556.651793894137	0
0	9887	3557.000735224843	1
0	9893	3564.046400630426	2
0	9894	3564.87878566818	1
0	9903	3565.47657813256	2
0	9904	3565.724272768528	1
0	9910	3566.589997162795	0
0	9916	3566.954117529563	1
0	9918	3569.839165200146	0
0	9928	3573.409145060777	1
0	9929	3575.54735038703	0
0	9936	3576.857822415003	1
0	9938	3577.252833262268	2
0	9939	3578.180416794139	1
0	9945	3579.505653311415	2
0	9946	3581.020323607565	1
0	9951	3581.177850259861	0
0	9955	3581.291688799448	1
0	9961	3585.315654730525	0
0	9969	3589.27828971028	1
0	9973	3590.65861840068	0
0	9995	3596.253419051201	1
0	9996	3596.332173951225	0
0	10007	3601.873145926915	1
0	10010	3601.951160799109	0
0	10054	3617.084156101131	1
0	10055	3617.240336242067	0
0	10065	3619.054578970805	1
0	10066	3621.486396519213	0
0	10073	3621.636424430416	1
0	10075	3622.02186952654	0
0	10092	3626.144004992228	1
0	10094	3628.036933256654	2
0	10097	3633.964165022269	1
0	10102	3633.992507639573	0
0	10110	3634.169471480339	1
0	10112	3634.556900783953	2
0	10114	3634.568038559352	3
0	10118	3636.415442989034	4
0	10120	3636.567430489903	5
0	10121	3636.843658854826	4
0	10126	3637.006843992268	3
0	10131	3637.651461286098	2
0	10135	3637.987468730487	3
0	10138	3639.166854501583	2
0	10146	3643.699018423283	3
0	10147	3644.394440460671	2
0	10154	3644.890150110666	3
0	10157	3649.579457907892	2
0	10165	3653.273264285838	3
0	10166	3656.606579255008	2
0	10172	3656.856098214916	3
0	10174	3657.375869801137	2
0	10181	3658.607364038381	3
0	10183	3659.219542429751	2
0	10191	3663.09822454738	1
0	10196	3663.963064624129	0
0	10214	3667.352902567095	1
0	10215	3668.003236353663	0
0	10222	3670.148999713079	1
0	10223	3670.643492714036	0
0	10231	3674.417473542979	1
0	10233	3674.668808779638	2
0	10234	3675.259577508033	1
0	10239	3675.85321672722	0
0	10247	3677.023136112293	1
0	10250	3678.716530970419	0
0	10269	3691.449808718937	1
0	10273	3694.494154403217	2
0	10276	3695.569876962427	1
0	10281	3695.671069915477	0
0	10292	3696.388463050386	1
0	10294	3697.447662674442	2
0	10297	3698.681585240871	1
0	10303	3699.494679902515	2
0	10305	3699.647511352261	3
0	10306	3700.457053216215	2
0	10312	3700.612820169021	3
0	10317	3704.305095827558	2
0	10323	3705.429812966018	3
0	10325	3705.967104603272	2
0	10330	3706.053545750313	1
0	10337	3706.868472025667	2
0	10340	3708.125199474744	3
0	10341	3710.113927310081	2
0	10348	3712.479741866887	3
0	10351	3712.899759166856	2
0	10356	3714.652446361087	1
0	10361	3716.267504566255	0
0	10369	3718.786796345025	1
0	10374	3722.143490972396	0
0	10387	3724.107104828385	1
0	10390	3726.135135192153	2
0	10391	3727.285284559881	1
0	10396	3727.426514830758	0
0	10443	3741.909939441097	1
0	10451	3744.612333773744	2
0	10452	3744.625118886803	1
0	10457	3748.350913404959	0
0	10463	3748.914105735134	1
0	10470	3755.111916125862	0
0	10485	3764.401876299009	1
0	10486	3764.746667372226	0
0	10495	3765.702953667487	1
0	10500	3766.81983525087	2
0	10501	3766.880920799111	1
0	10508	3767.282574071232	2
0	10509	3767.568065342995	1
0	10517	3767.903276987517	2
0	10520	3768.428899059077	1
0	10526	3769.226872428704	0
0	10539	3770.492658492555	1
0	10540	3770.538739475419	0
0	10567	3779.142152759443	1
0	10568	3780.433695577393	0
0	10574	3781.885713979967	1
0	10576	3782.250518074019	0
0	10592	3787.503036000556	1
0	10596	3788.98902726273	2
0	10597	3789.162331328862	1
0	10604	3790.043036580409	0
0	10630	3797.898507610109	1
0	10633	3798.239133207572	0
0	10639	3798.449554382628	1
0	10642	3800.346602370964	2
0	10643	3802.538621760632	1
0	10650	3802.715481572742	0
0	10659	3808.073689579952	1
0	10667	3813.786957393184	2
0	10670	3815.864569600884	1
0	10680	3816.921616084785	2
0	10684	3818.184864042937	1
0	10690	3818.598301777978	2
0	10691	3820.186861797612	1
0	10696	3820.598788739718	0
0	10700	3823.118886691229	1
0	10706	3824.032735451997	2
0	10708	3826.096886101161	1
0	10719	3829.969253428596	2
0	10720	3830.216171690036	1
0	10726	3830.549633907698	2
0	10728	3834.682137823277	1
0	10734	3837.455606111767	0
0	10757	3842.668133291327	1
0	10759	3843.268202948581	2
0	10760	3844.246603053572	1
0	10766	3844.647928932533	2
0	10770	3846.268133945946	3
0	10773	3847.069195432462	2
0	10778	3848.67722875935	1
0	10786	3852.852618047599	2
0	10788	3854.352152254806	3
0	10789	3854.393001079375	2
0	10795	3856.271988383005	3
0	10797	3857.293380747394	2
0	10803	3858.785475261794	1
0	10809	3861.588557848192	0
0	10816	3862.957841640943	1
0	10818	3863.127350177094	2
0	10822	3866.830087408338	3
0	10823	3867.54432233586	2
0	10828	3867.654035566595	1
0	10839	3872.611977454642	0
0	10845	3873.04815722608	1
0	10846	3873.877963639606	0
0	10852	3874.022580290222	1
0	10855	3874.684745015098	0
0	10859	3876.017118017006	1
0	10861	3876.456634063661	2
0	10868	3879.258078770345	1
0	10876	3882.163139028394	2
0	10880	3883.722146734572	3
0	10881	3884.13347702057	2
0	10887	3884.662054688831	3
0	10890	3884.978197105692	4
0	10892	3887.099803789612	5
0	10894	3888.10822144576	6
0	10895	3888.339614475943	5
0	10903	3890.944086462079	4
0	10910	3892.568214813298	5
0	10911	3894.261260804507	4
0	10918	3898.721956776636	3
0	10923	3899.64724516281	2
0	10929	3904.676751956114	1
0	10938	3907.183129126059	2
0	10940	3909.310922550235	3
0	10942	3909.379310867942	4
0	10943	3910.916466572529	3
0	10948	3911.70565531128	2
0	10959	3915.899785405303	3
0	10960	3916.10539924204	2
0	10968	3917.849609806377	3
0	10969	3919.023684246276	2
0	10974	3919.247654358178	1
0	10981	3919.623915637284	2
0	10982	3920.494056302283	1
0	10988	3920.682738708255	2
0	10991	3923.3806204027	1
0	10997	3925.47439228751	0
0	11014	3928.559757634343	1
0	11015	3928.897806835972	0
0	11057	3947.035344288031	1
0	11059	3947.995759992507	2
0	11061	3949.484032541835	3
0	11063	3949.546450528256	4
0	11065	3950.419931448192	5
0	11066	3952.134693621472	4
0	11073	3952.507870101298	3
0	11080	3954.980543834087	2
0	11088	3957.313088620251	1
0	11094	3958.364025840013	0
0	11111	3961.558402897329	1
0	11112	3962.083767643999	0
0	11119	3965.47783962234	1
0	11121	3966.893579309864	2
0	11122	3968.154249163786	1
0	11128	3969.46083637676	0
0	11152	3983.92538535991	1
0	11155	3985.575619052035	0
0	11162	3987.837255541445	1
0	11164	3988.068906665811	0
0	11170	3988.373184844319	1
0	11173	3995.57528309026	0
0	11206	4005.137931448396	1
0	11209	4010.032049105454	0
0	11218	4011.86085295337	1
0	11220	4012.12178565672	2
0	11223	4012.800226162016	1
0	11229	4013.371225717052	0
0	11260	4021.142827276858	1
0	11263	4023.332809712504	0
0	11269	4024.846911057717	1
0	11270	4025.385657369425	0
0	11284	4027.072510749597	1
0	11286	4028.175315755763	2
0	11289	4029.773661844589	1
0	11297	4032.421108911666	2
0	11299	4032.548641998965	3
0	11300	4033.545164439993	2
0	11306	4035.065960324861	1
0	11311	4035.122454697178	0
0	11326	4041.24115051284	1
0	11328	4042.53208880434	2
0	11329	4043.247650722861	1
0	11335	4044.227230458797	0
0	11352	4055.760549479977	1
0	11361	4059.984575717076	2
0	11363	4062.919307029567	3
0	11366	4063.906364130791	2
0	11372	4065.420245588813	3
0	11374	4065.932835570511	2
0	11382	4071.180253324906	3
0	11385	4072.878045550261	2
0	11395	4075.20434551223	3
0	11398	4075.816372996438	2
0	11404	4078.340678627581	3
0	11407	4080.337395092885	2
0	11413	4082.577078521207	1
0	11418	4084.602306153817	0
0	11422	4084.990550249614	1
0	11428	4088.447937657295	2
0	11429	4090.167342199925	1
0	11435	4090.671535940258	0
0	11441	4090.804839980742	1
0	11446	4092.601161375701	0
0	11464	4094.448026711341	1
0	11465	4095.678936357241	0
0	11479	4099.859710139189	1
0	11482	4103.229582634877	0
0	11494	4106.575518934619	1
0	11496	4107.610861671864	0
0	11504	4109.413638740786	1
0	11505	4115.140811420713	0
0	11522	4117.929167535373	1
0	11525	4121.427841289474	0
0	11531	4122.262345204348	1
0	11534	4122.856233599481	2
0	11535	4123.268637635893	1
0	11540	4123.444781673262	0
0	11556	4133.041616711683	1
0	11558	4133.975477615265	2
0	11562	4134.075696771214	3
0	11564	4135.510042578019	4
0	11569	4138.545499069803	5
0	11570	4138.726858694312	4
0	11576	4142.604879581142	3
0	11582	4144.58206904445	2
0	11590	4145.044451761493	3
0	11591	4146.310458797184	2
0	11595	4147.322400873251	3
0	11599	4148.524999603451	4
0	11605	4150.700304415361	3
0	11613	4151.977079553829	2
0	11618	4152.890508176828	1
0	11622	4153.004887511858	2
0	11624	4153.197110368213	3
0	11630	4154.828097674159	4
0	11634	4156.156063461977	5
0	11638	4159.614406617733	6
0	11639	4159.783031704688	5
0	11644	4161.611260524195	4
0	11650	4161.764765007776	5
0	11652	4162.535542790335	6
0	11654	4165.672027669881	7
0	11659	4170.990885735359	6
0	11663	4170.999221929478	7
0	11666	4175.000880527127	6
0	11670	4176.131900257597	7
0	11674	4178.800057659272	8
0	11677	4182.180696926353	7
0	11683	4183.109172220577	8
0	11685	4184.067985197141	9
0	11691	4188.804717193998	10
0	11693	4190.513937019155	11
0	11694	4191.976294700391	10
0	11702	4193.436701190918	11
0	11706	4195.290054575998	10
0	11711	4195.895386008059	9
0	11717	4195.95860778805	10
0	11718	4196.738790525724	9
0	11725	4199.005484380554	8
0	11730	4200.528643174052	7
0	11737	4202.910855633491	8
0	11738	4206.434552117154	7
0	11743	4207.173211132953	6
0	11747	4207.418194653165	7
0	11749	4208.832689016487	8
0	11756	4210.724344379192	9
0	11758	4211.803858057939	10
0	11759	4215.164662827453	9
0	11765	4217.615152129439	8
0	11771	4218.333954389914	7
0	11777	4219.199799086453	6
0	11783	4219.20400851219	7
0	11785	4219.858664106118	6
0	11791	4220.440653422714	5
0	11796	4220.898704414768	4
0	11803	4222.425383292576	3
0	11808	4222.880524467901	2
0	11814	4223.837960914899	3
0	11815	4224.076450375139	2
0	11820	4226.020603624761	1
0	11827	4228.843044580171	0
0	11831	4229.581483271583	1
0	11838	4233.402698687233	2
0	11843	4234.17716084594	3
0	11844	4234.262020283243	2
0	11853	4237.459519781824	3
0	11856	4241.136814073372	2
0	11863	4247.248284313463	1
0	11870	4248.647294952541	2
0	11872	4249.98593357008	1
0	11877	4251.114513241445	0
0	11903	4255.777178620468	1
0	11908	4257.719341078952	0
0	11914	4259.210631769561	1
0	11915	4260.04903312009	0
0	11926	4263.088275643127	1
0	11928	4267.384617296338	2
0	11932	4268.241671232957	3
0	11936	4271.606231372728	4
0	11938	4272.619025292409	5
0	11939	4276.889672602147	4
0	11946	4277.609329861151	5
0	11947	4279.565659311298	4
0	11952	4279.755868199398	3
0	11960	4284.468826950056	2
0	11966	4285.138020797758	3
0	11968	4286.085551439278	4
0	11969	4286.965032087758	3
0	11976	4290.926130892338	2
0	11981	4293.74028588349	1
0	11986	4294.575703943275	0
0	11995	4296.957464807176	1
0	11997	4297.343474056345	2
0	12002	4298.616869356562	3
0	12003	4299.441366819037	2
0	12009	4304.058756712963	1
0	12015	4305.67183607797	0
0	12036	4314.003447910061	1
0	12039	4318.791591584857	2
0	12042	4319.558660470141	1
0	12051	4321.628088126885	0
0	12069	4327.489465219218	1
0	12074	4329.527518493547	0
0	12093	4335.9088976878	1
0	12097	4336.778668971747	2
0	12100	4337.028930824868	3
0	12101	4337.30559267124	2
0	12108	4340.227974137949	1
0	12114	4342.084372337534	0
0	12132	4343.967360347741	1
0	12134	4344.857442945584	2
0	12137	4347.020470014748	3
0	12139	4348.874225374478	4
0	12140	4351.264426654405	3
0	12146	4352.000470479278	4
0	12149	4353.733593978395	5
0	12151	4355.104947253899	6
0	12153	4356.605522696163	7
0	12154	4356.891090934774	6
0	12160	4356.932366952148	7
0	12164	4357.737805323015	6
0	12169	4358.157337875655	5
0	12173	4358.761082171126	6
0	12177	4359.54925731126	7
0	12179	4359.858697203195	8
0	12183	4364.241419098216	9
0	12186	4366.391919991849	8
0	12192	4368.339572681263	7
0	12204	4373.204749897524	8
0	12205	4374.075332465508	7
0	12212	4374.654452116089	8
0	12213	4378.25382001963	7
0	12219	4379.476473447325	6
0	12225	4380.445833061242	7
0	12227	4380.663615082136	8
0	12229	4380.714672804563	9
0	12233	4385.305108106381	8
0	12238	4385.346133505339	7
0	12242	4385.76906972378	8
0	12247	4386.726993921694	9
0	12249	4388.615440011027	8
0	12254	4388.978827974536	7
0	12259	4391.855696515262	6
0	12264	4395.272821318543	5
0	12268	4397.270308966951	6
0	12274	4397.764203351112	7
0	12275	4397.828849363476	6
0	12281	4398.296263035595	7
0	12283	4398.820369195731	8
0	12288	4400.721945536027	9
0	12289	4401.73835792678	8
0	12297	4403.910249099462	9
0	12298	4404.759529254855	8
0	12303	4405.801115084925	7
0	12308	4406.131637578379	6
0	12316	4407.696293652061	7
0	12321	4408.1396818005	8
0	12324	4411.523156546977	9
0	12326	4411.576575235057	10
0	12328	4412.186688215886	11
0	12329	4413.059668046035	10
0	12335	4413.590353766216	9
0	12340	4414.74229540476	8
0	12352	4422.224192312503	9
0	12353	4422.961495521109	8
0	12359	4423.80813343572	7
0	12367	4432.000140898991	6
0	12372	4432.531657034373	5
0	12380	4433.432897855901	4
0	12386	4433.858017050024	5
0	12387	4434.483654927641	4
0	12393	4436.5019262595	3
0	12400	4438.181255584381	4
0	12402	4439.480545732345	5
0	12403	4439.973640767364	4
0	12411	4441.060082197903	3
0	12418	4441.69472341411	4
0	12421	4443.330648969602	5
0	12422	4443.505820198045	4
0	12428	4445.290426698082	3
0	12434	4446.361147128245	2
0	12444	4448.045599827818	1
0	12449	4448.372912026688	0
0	12462	4451.278192630956	1
0	12463	4453.385724320702	0
0	12489	4455.924769108095	1
0	12492	4457.706837476612	0
0	12498	4457.948723349209	1
0	12500	4458.423475235871	2
0	12505	4460.48269217814	3
0	12507	4462.171959491252	2
0	12519	4466.323093755026	3
0	12520	4467.889799897611	2
0	12527	4471.478640312003	3
0	12528	4472.621502650552	2
0	12536	4474.292175862033	1
0	12541	4474.444984055344	0
0	12559	4476.352008091641	1
0	12560	4476.606149847022	0
0	12573	4480.133221096778	1
0	12574	4480.136946207043	0
0	12589	4483.129910891193	1
0	12591	4483.208501801349	2
0	12593	4485.205685184498	1
0	12598	4485.757172855565	0
0	12606	4487.128203605473	1
0	12611	4489.426580416859	2
0	12613	4489.559015455315	3
0	12614	4489.95557569457	2
0	12620	4491.893377097664	1
0	12627	4493.665728497386	0
0	12644	4497.321365260027	1
0	12645	4500.932889453686	0
0	12652	4503.306264128313	1
0	12653	4504.038892746143	0
0	12667	4508.579523065849	1
0	12669	4510.2780879038	2
0	12673	4515.74657185159	1
0	12679	4519.397925621232	0
0	12703	4525.559285915307	1
0	12704	4528.684447237893	0
0	12735	4534.503643600327	1
0	12738	4535.465668360218	0
0	12744	4535.506074060088	1
0	12748	4537.382829356833	2
0	12749	4537.532043128095	1
0	12757	4539.113249078113	2
0	12759	4541.355898525847	1
0	12766	4546.142902695473	0
0	12772	4546.311459918266	1
0	12775	4548.249720708319	0
0	12794	4553.294519017152	1
0	12795	4555.242471296574	0
0	12807	4558.3307956091	1
0	12810	4563.770128659673	0
0	12825	4566.998551149215	1
0	12828	4570.152499809112	0
0	12837	4571.920331394797	1
0	12838	4576.766700910597	0
0	12849	4580.150281940824	1
0	12852	4581.033417321527	2
0	12853	4581.410919030107	1
0	12858	4581.477624883849	0
0	12868	4587.66756255794	1
0	12870	4587.997379498404	2
0	12872	4588.494686754628	3
0	12873	4594.195664705039	2
0	12878	4594.3117857493	1
0	12883	4594.553138581735	0
0	12892	4597.656745847353	1
0	12901	4602.379086262317	2
0	12904	4602.88810161694	3
0	12909	4606.940963042698	2
0	12917	4609.157578677293	3
0	12919	4609.174028241425	4
0	12925	4615.812124615754	3
0	12930	4616.105895232646	2
0	12936	4617.908315816282	1
0	12941	4619.220677464753	0
0	12947	4623.180605381302	1
0	12948	4625.599537007847	0
0	12954	4628.44055421514	1
0	12956	4630.265189677981	0
0	12968	4630.793268353346	1
0	12969	4630.918473461287	0
0	12985	4638.164277520739	1
0	12986	4638.215226397959	0
0	12999	4641.995116743859	1
0	13001	4642.449156813279	0
0	13016	4650.565685679117	1
0	13017	4650.600658963701	0
0	13029	4655.309006252409	1
0	13030	4656.883937978856	0
0	13043	4659.475918632377	1
0	13046	4659.91516142869	0
0	13054	4662.047292217237	1
0	13060	4665.094963614302	2
0	13061	4666.403432155824	1
0	13068	4666.686814589795	2
0	13070	4666.892386601318	3
0	13071	4668.133538028419	2
0	13078	4669.672340395175	1
0	13086	4670.510694428448	2
0	13087	4670.78603204181	1
0	13093	4671.65542578317	2
0	13094	4672.202827589873	1
0	13100	4673.051252122537	0
0	13129	4679.161829193132	1
0	13130	4680.186384089682	0
0	13139	4683.680116652908	1
0	13142	4687.497138043204	0
0	13148	4687.809499195333	1
0	13150	4687.959610419687	0
0	13159	4688.499596692683	1
0	13160	4690.574942126756	0
0	13194	4704.459442553342	1
0	13197	4707.56311670164	0
0	13226	4714.298910146225	1
0	13229	4714.909644565797	0
0	13235	4715.300325530022	1
0	13238	4720.949173968783	2
0	13248	4728.860109759648	3
0	13250	4729.195904671074	4
0	13252	4730.887319743613	5
0	13253	4731.245558033112	4
0	13258	4731.713413684645	3
0	13264	4732.675734365808	4
0	13273	4739.842772849387	3
0	13278	4740.06241130871	2
0	13290	4743.605416386301	3
0	13291	4743.616197412644	2
0	13298	4744.782000514244	3
0	13299	4745.359995559448	2
0	13304	4746.101919445203	1
0	13309	4747.80819407423	0
0	13325	4753.240852831315	1
0	13326	4756.326910096124	0
0	13334	4761.065446854563	1
0	13336	4761.642031188534	2
0	13337	4764.853324961374	1
0	13345	4767.359790913473	0
0	13357	4769.790982220365	1
0	13359	4771.34888488521	2
0	13360	4772.096292389601	1
0	13365	4772.198075134759	0
0	13379	4773.404134312123	1
0	13381	4777.38907717468	2
0	13386	4779.581816175245	3
0	13388	4779.76996380658	4
0	13389	4779.788837081637	3
0	13394	4779.905236352313	2
0	13402	4781.816776357843	3
0	13406	4782.076258240721	2
0	13411	4783.052065474246	1
0	13419	4785.409430804171	2
0	13421	4786.214490607902	1
0	13427	4786.234254970814	2
0	13428	4786.341305368914	1
0	13434	4786.391073348932	2
0	13438	4788.408579522348	1
0	13444	4789.005381841067	2
0	13447	4790.204750344667	3
0	13449	4791.022072467649	4
0	13450	4792.232517244425	3
0	13455	4792.468845188285	2
0	13460	4792.919910838111	1
0	13467	4798.546423268992	0
0	13475	4802.371126217024	1
0	13476	4802.632147324175	0
0	13488	4807.501679694615	1
0	13491	4808.307120963358	0
0	13522	4824.926275333914	1
0	13527	4833.265358214138	0
0	13534	4835.487242071524	1
0	13538	4836.461017460996	2
0	13539	4838.286584955717	1
0	13545	4840.715385236517	0
0	13562	4842.234946759031	1
0	13564	4842.743914275924	2
0	13565	4844.33324472057	1
0	13571	4844.522306046139	2
0	13574	4845.869320064936	1
0	13579	4845.902986044081	0
0	13585	4846.694638496395	1
0	13588	4849.486687959807	0
0	13618	4853.161268755986	1
0	13622	4854.217958322282	2
0	13627	4856.458750184627	1
0	13632	4856.811357892265	0
0	13639	4857.861622892782	1
0	13642	4859.377861920312	2
0	13645	4860.141641091048	1
0	13651	4861.864952902132	0
0	13674	4870.905169662908	1
0	13676	4871.160471948905	2
0	13680	4875.007268796087	3
0	13682	4875.48208702635	4
0	13683	4876.351226075023	3
0	13689	4877.924141804353	2
0	13697	4881.899664901075	1
0	13702	4882.86825360479	0
0	13715	4883.38213933781	1
0	13720	4886.928617180392	2
0	13721	4888.013697030926	1
0	13729	4889.311084065249	2
0	13732	4891.116893608947	1
0	13740	4892.149029811965	2
0	13744	4893.174995905182	1
0	13753	4896.012307553009	2
0	13758	4898.791461566017	1
0	13764	4902.690666433981	0
0	13770	4903.190529045149	1
0	13771	4905.009717935621	0
0	13800	4916.982827779523	1
0	13802	4917.537688431479	2
0	13804	4917.583813186766	3
0	13805	4917.595284938886	2
0	13810	4918.043628649385	1
0	13817	4919.897998549007	2
0	13820	4921.667034703966	3
0	13821	4922.403067369821	2
0	13835	4925.782721694319	3
0	13840	4927.836667438395	2
0	13846	4928.961382963989	1
0	13851	4930.200091145173	0
0	13868	4936.148804263486	1
0	13875	4940.616517627374	0
0	13883	4941.820170673765	1
0	13884	4944.411390259166	0
0	13895	4944.881774597121	1
0	13896	4945.046317274325	0
0	13900	4945.977625457811	1
0	13907	4948.699866112645	2
0	13909	4948.787310177024	3
0	13913	4952.107383859041	2
0	13919	4955.717841551465	1
0	13924	4955.740521348853	0
0	13955	4963.605862929107	1
0	13957	4964.786941311367	2
0	13959	4965.325983083889	3
0	13960	4965.967994258392	2
0	13967	4967.459197345969	3
0	13968	4968.416980171397	2
0	13974	4971.136667214149	1
0	13979	4971.421681183934	0
0	13987	4971.879421127486	1
0	13990	4972.741598922092	2
0	13992	4973.002108626989	3
0	13994	4973.846950904095	2
0	13998	4977.56409659691	3
0	14001	4979.443916726287	2
0	14005	4979.876810071485	3
0	14007	4982.765576811773	4
0	14016	4986.394368899844	3
0	14022	4988.150140679541	2
0	14028	4989.698263502405	1
0	14040	4993.279620528582	2
0	14042	4993.487262796557	3
0	14043	4993.884818942312	2
0	14052	4998.912887238359	1
0	14059	4999.602597257975	2
0	14063	5001.344496709148	3
0	14064	5002.482317789062	2
0	14070	5003.789943712283	3
0	14073	5007.915139519903	4
0	14074	5008.633366655511	3
0	14080	5008.819748787921	2
0	14088	5009.323800416712	1
0	14095	5011.318974897495	0
0	14107	5013.164081372516	1
0	14108	5013.179935496082	0
0	14141	5028.546213163513	1
0	14144	5028.970817582554	0
0	14151	5030.253055950818	1
0	14152	5031.222290285967	0
0	14162	5035.853000484414	1
0	14165	5036.16976627104	0
0	14191	5047.686440975045	1
0	14194	5048.224791161039	0
0	14206	5051.473568474168	1
0	14209	5053.49023823051	0
0	14215	5053.641337750821	1
0	14217	5055.23177249431	0
0	14226	5056.576964154545	1
0	14229	5058.509309373149	0
0	14241	5061.203100682763	1
0	14243	5061.606839162966	2
0	14244	5062.704729052755	1
0	14250	5063.481033153167	0
0	14264	5065.91474079635	1
0	14270	5067.994758268198	2
0	14272	5069.066688695154	1
0	14280	5069.880037921902	2
0	14281	5070.876038956791	1
0	14287	5071.150060845966	2
0	14290	5074.348900347094	1
0	14297	5074.697355468057	2
0	14299	5074.830692855866	3
0	14300	5074.858194251073	2
0	14306	5075.722530459545	3
0	14307	5075.78508493541	2
0	14312	5076.184198362711	1
0	14318	5077.270600086674	0
0	14328	5080.708213748502	1
0	14330	5081.081019484716	2
0	14331	5081.107635058612	1
0	14337	5081.136926104241	2
0	14338	5081.225317310204	1
0	14344	5081.748424798795	0
0	14366	5087.398551106578	1
0	14367	5087.648293215387	0
0	14387	5092.904695106691	1
0	14390	5094.315749836935	0
0	14398	5095.715071099153	1
0	14400	5100.107797430614	0
0	14430	5110.34945282535	1
0	14434	5112.351397871256	2
0	14437	5114.936825646108	3
0	14438	5115.449309987279	2
0	14444	5117.111274574193	1
0	14449	5117.660845401569	0
0	14472	5127.3449842421	1
0	14478	5129.278934877326	2
0	14479	5131.279026408219	1
0	14489	5137.298419067434	0
0	14495	5137.373674107754	1
0	14497	5138.931120899116	0
0	14506	5141.055366431551	1
0	14507	5141.378797855355	0
0	14526	5147.374213524295	1
0	14529	5148.055581748367	0
0	14535	5149.006151858156	1
0	14538	5150.571710845445	2
0	14539	5153.378779151794	1
0	14544	5153.383449532446	0
0	14555	5155.017151771321	1
0	14562	5158.657338182322	0
0	14574	5159.926362597926	1
0	14576	5160.634058863773	2
0	14582	5162.786772847562	3
0	14583	5162.969342165523	2
0	14590	5163.523671741735	3
0	14592	5166.105658471452	2
0	14598	5167.206340320469	1
0	14605	5169.486813342608	2
0	14611	5171.530629831302	3
0	14612	5171.929644895179	2
0	14620	5173.169689520711	1
0	14625	5173.869958463005	0
0	14651	5183.424994349352	1
0	14653	5183.848944154167	2
0	14657	5185.472198847166	3
0	14660	5189.028941532022	2
0	14666	5191.066235903001	1
0	14673	5193.249741651292	0
0	14690	5195.879069081659	1
0	14692	5196.196608974884	2
0	14693	5197.605464225265	1
0	14699	5198.902772871815	0
0	14711	5199.825295822387	1
0	14713	5199.930466353557	2
0	14715	5200.403960674842	3
0	14716	5202.632105704364	2
0	14722	5202.996977245442	1
0	14734	5209.022769612163	0
0	14741	5210.699025822876	1
0	14749	5217.648310547625	2
0	14750	5217.789672297057	1
0	14756	5220.146707976305	0
0	14764	5222.1691953825	1
0	14766	5224.51409237754	0
0	14772	5226.864689834168	1
0	14773	5227.783883512266	0
0	14796	5235.626324416973	1
0	14797	5236.120858201417	0
0	14806	5238.938165236203	1
0	14813	5246.051004834119	2
0	14814	5246.41643792319	1
0	14819	5247.258837230731	0
0	14839	5254.035718304029	1
0	14843	5254.386755267906	2
0	14847	5254.728721184843	3
0	14851	5255.712040734259	2
0	14856	5256.347297105588	1
0	14863	5257.16356445582	0
0	14886	5263.739871483984	1
0	14890	5265.48972310906	2
0	14891	5265.908035280392	1
0	14896	5265.930766049821	0
0	14905	5268.350942628748	1
0	14909	5268.574443165412	2
0	14913	5270.876981198935	3
0	14916	5271.45424481307	2
0	14921	5271.528787601704	1
0	14928	5275.118832018732	0
0	14946	5278.228248555999	1
0	14948	5278.262085432106	2
0	14952	5280.001341785187	3
0	14954	5280.741266086265	2
0	14959	5281.652136262413	1
0	14964	5282.682258438694	0
0	14972	5284.26033509289	1
0	14975	5285.747566106318	0
0	14979	5286.058961722459	1
0	14989	5290.59473992638	0
0	14999	5295.358939895505	1
0	15000	5297.604382547697	0
0	15020	5304.064481782554	1
0	15021	5304.682835327294	0
0	15038	5308.470459254758	1
0	15042	5309.938964835142	2
0	15044	5314.757523752353	3
0	15045	5314.930022045348	2
0	15051	5317.563486425099	1
0	15059	5318.910150678955	0
0	15074	5323.397431426929	1
0	15075	5324.995176789661	0
0	15087	5332.917518477896	1
0	15088	5332.926217964351	0
0	15094	5334.169947311377	1
0	15096	5335.142588850227	2
0	15098	5339.307715754572	1
0	15104	5340.512873347596	2
0	15106	5343.881049316999	1
0	15114	5346.226473892994	0
0	15140	5355.389310714869	1
0	15141	5356.648988145549	0
0	15157	5361.325996234741	1
0	15159	5363.402682960395	0
0	15173	5368.235331970859	1
0	15174	5368.780623409453	0
0	15201	5376.427878117274	1
0	15202	5377.217809723319	0
0	15236	5392.757469513409	1
0	15238	5392.799316590243	2
0	15242	5394.718689789032	3
0	15244	5394.968642402188	4
0	15245	5395.235815934639	3
0	15251	5395.704783102795	2
0	15257	5396.10881063683	3
0	15260	5396.863741006387	4
0	15261	5401.384051411173	3
0	15266	5402.87092980958	2
0	15274	5404.763442242132	1
0	15282	5407.461491047854	2
0	15284	5413.555390331813	3
0	15285	5414.803345602064	2
0	15292	5417.064809066126	3
0	15293	5417.276215915119	2
0	15299	5417.328282133403	3
0	15300	5417.608943484227	2
0	15305	5418.285262031347	1
0	15309	5419.509518022732	2
0	15312	5421.157795319254	1
0	15316	5421.897636661101	2
0	15323	5425.697476188379	3
0	15330	5428.603802338095	2
0	15335	5429.048632080835	1
0	15344	5432.352719503024	0
0	15350	5433.166495800935	1
0	15353	5434.911225371346	2
0	15355	5436.676934952208	1
0	15360	5440.402446120967	0
0	15377	5442.509038359577	1
0	15380	5443.990755933649	0
0	15388	5446.194482192231	1
0	15389	5446.308910520079	0
0	15393	5446.99100778834	1
0	15395	5447.829091140497	2
0	15402	5449.725208082496	3
0	15404	5452.09592861548	2
0	15410	5453.969500193278	1
0	15416	5455.681532090253	0
0	15423	5456.412418488228	1
0	15424	5463.554389816101	0
0	15462	5474.137044479309	1
0	15471	5481.17220916282	0
0	15477	5481.222084172178	1
0	15478	5483.41331238866	0
0	15489	5483.684852708078	1
0	15491	5485.005552646916	0
0	15502	5487.533391429529	1
0	15504	5490.258364368434	2
0	15510	5493.646814035336	1
0	15519	5495.955127716806	2
0	15520	5497.398975417407	1
0	15525	5497.948721293919	0
0	15541	5502.49734253852	1
0	15542	5502.659319228764	0
0	15548	5503.240425969067	1
0	15551	5504.553873317088	2
0	15552	5504.627292214967	1
0	15559	5505.758043164054	2
0	15560	5506.758104329698	1
0	15567	5508.612338219807	2
0	15569	5509.602312734195	3
0	15571	5510.774968061704	4
0	15572	5512.501111754461	3
0	15579	5514.357123689731	2
0	15586	5518.512226906302	3
0	15587	5519.431055566736	2
0	15592	5519.617231419496	1
0	15597	5524.698462703152	0
0	15615	5531.906443390167	1
0	15616	5532.030861971627	0
0	15632	5538.668178472878	1
0	15634	5538.922454489505	2
0	15640	5541.050230866297	1
0	15645	5542.440170292141	0
0	15661	5548.711043832023	1
0	15662	5550.858594383622	0
0	15669	5555.227558956595	1
0	15670	5555.232834403938	0
0	15686	5557.14985275671	1
0	15693	5561.222473853539	2
0	15694	5561.781337916033	1
0	15699	5561.860221807435	0
0	15724	5570.09557406804	1
0	15730	5571.121671654054	2
0	15731	5571.947894417181	1
0	15736	5572.182253510592	0
0	15751	5575.319097465958	1
0	15756	5577.930951151261	0
0	15763	5578.558097671519	1
0	15765	5578.968935379906	2
0	15766	5579.413376907714	1
0	15772	5579.776950865495	2
0	15774	5580.996331323911	3
0	15777	5585.543176309948	2
0	15784	5589.907524001211	3
0	15785	5589.966622598914	2
0	15791	5593.198215391374	1
0	15800	5595.382291475255	0
0	15809	5596.083917770717	1
0	15813	5597.116242914	0
0	15823	5601.269514824516	1
0	15827	5602.85155055691	2
0	15828	5604.001366440792	1
0	15834	5604.065430142341	2
0	15837	5605.19996472717	1
0	15842	5607.242436718179	0
0	15850	5608.662604561224	1
0	15851	5610.08240252605	0
0	15864	5614.361715763768	1
0	15866	5614.85949591902	2
0	15868	5615.338515340257	1
0	15876	5620.22012406406	0
0	15882	5620.314794019653	1
0	15883	5620.538976881933	0
0	15901	5624.671450476537	1
0	15905	5625.775032963097	0
0	15920	5629.58799148763	1
0	15927	5632.355648138224	0
0	15936	5635.000450644378	1
0	15942	5638.437395184854	0
0	15960	5641.485114196069	1
0	15962	5642.53860778122	0
0	15980	5645.272173351798	1
0	15982	5645.462062513128	2
0	15984	5646.225773919929	3
0	15990	5651.418559210459	4
0	15991	5651.75263459637	3
0	15997	5652.736313007298	4
0	15999	5656.773236846109	3
0	16004	5657.06413197804	2
0	16011	5659.196345184309	1
0	16016	5659.303870616266	0
0	16036	5667.011752472507	1
0	16038	5667.77304819401	2
0	16039	5669.657396224326	1
0	16044	5671.988893397894	0
0	16050	5672.728590449695	1
0	16051	5672.891492572613	0
0	16057	5674.5442402535	1
0	16063	5677.150648221737	2
0	16065	5677.941912482173	3
0	16066	5678.696185119236	2
0	16070	5679.57573000801	3
0	16081	5682.240072727528	2
0	16088	5682.904854074471	3
0	16092	5685.357143472502	4
0	16093	5686.077434273743	3
0	16099	5686.751382557195	4
0	16100	5687.286818910854	3
0	16110	5691.028043265096	4
0	16114	5694.219495265236	5
0	16116	5695.220055656121	6
0	16120	5697.17498194735	7
0	16121	5697.952825498046	6
0	16126	5699.275200338333	5
0	16131	5699.38878905149	4
0	16137	5700.515663382941	3
0	16147	5701.837881545572	4
0	16150	5704.600862274203	3
0	16155	5704.70550933119	2
0	16161	5706.147456528466	1
0	16166	5707.047377433793	0
0	16170	5707.092492758528	1
0	16174	5709.415406609684	2
0	16179	5710.482432866996	1
0	16185	5710.533800461568	2
0	16186	5710.689154250697	1
0	16192	5711.851313882784	2
0	16194	5712.630778357554	3
0	16196	5712.833313950598	4
0	16197	5713.185018146832	3
0	16202	5714.878282823577	2
0	16206	5715.31333375028	3
0	16210	5719.47556731194	4
0	16211	5720.265318955131	3
0	16215	5720.713108355775	4
0	16217	5721.373376320011	5
0	16223	5723.752701713358	6
0	16228	5724.486133762927	5
0	16234	5726.229197105847	6
0	16235	5726.960292016022	5
0	16241	5729.190784276535	4
0	16248	5732.211546981853	3
0	16252	5732.571664704569	4
0	16257	5735.494554874185	5
0	16259	5735.49699537169	6
0	16263	5738.946487260723	7
0	16266	5740.931599773948	6
0	16271	5740.985704022667	5
0	16275	5743.239763235279	6
0	16280	5744.301556846023	7
0	16283	5747.051970110621	6
0	16292	5749.072013887957	5
0	16298	5749.584771747021	6
0	16306	5756.491630536956	5
0	16314	5760.521858141363	4
0	16328	5771.323471326725	3
0	16335	5772.125320806407	4
0	16337	5772.971498444389	5
0	16338	5773.449145701299	4
0	16344	5773.884459346977	5
0	16346	5775.78595074598	4
0	16353	5779.576440991041	5
0	16354	5780.726160777708	4
0	16360	5780.785291798166	5
0	16361	5781.12805539693	4
0	16367	5781.431436124675	5
0	16369	5782.354443296601	4
0	16375	5784.926314901899	5
0	16380	5788.248101111603	4
0	16384	5789.083118910572	5
0	16387	5791.01053019126	4
0	16391	5791.360964810659	5
0	16395	5792.430370429091	6
0	16397	5792.88459014838	7
0	16398	5793.058159215113	6
0	16407	5796.393802612991	7
0	16411	5797.075771417315	8
0	16413	5798.619643984535	9
0	16414	5801.301369565349	8
0	16419	5801.818908140353	7
0	16425	5802.921149205976	8
0	16429	5806.804903562171	9
0	16430	5808.346839339754	8
0	16436	5811.449677682506	7
0	16441	5813.25995552718	6
0	16446	5814.52642791061	5
0	16455	5818.128216693801	4
0	16459	5819.130010093792	5
0	16461	5819.492246583676	6
0	16467	5824.920344595506	7
0	16468	5825.748627875928	6
0	16473	5828.843634516668	5
0	16481	5831.224149327215	6
0	16482	5833.299759229032	5
0	16487	5833.383995666037	4
0	16493	5834.050210955485	3
0	16498	5834.767018597693	2
0	16502	5835.690082121198	3
0	16505	5836.365493959378	2
0	16511	5838.200418579572	3
0	16514	5840.437180658819	2
0	16519	5840.618367098426	1
0	16526	5842.587125308515	0
0	16538	5844.603656907476	1
0	16540	5845.517799251306	2
0	16541	5845.777701427787	1
0	16546	5846.071902605759	0
0	16566	5850.656701504453	1
0	16569	5851.421978067882	0
0	16580	5854.177719147097	1
0	16582	5855.087782702425	2
0	16588	5860.709026564286	3
0	16590	5865.166460517808	2
0	16601	5867.862142766252	3
0	16602	5868.033125992087	2
0	16607	5868.962727253389	1
0	16615	5870.017268596353	2
0	16617	5871.609003070369	1
0	16623	5873.169102734854	0
0	16642	5877.944799346744	1
0	16643	5878.681327778305	0
0	16655	5880.493476309771	1
0	16656	5880.512209731489	0
0	16667	5882.10045223971	1
0	16669	5883.175180299389	2
0	16670	5886.607876263899	1
0	16676	5886.713525235137	0
0	16686	5889.475539247573	1
0	16688	5891.231851199382	0
0	16694	5891.447283446877	1
0	16697	5893.658000235801	2
0	16700	5894.698594374427	1
0	16705	5894.829280512032	0
0	16714	5900.048647755592	1
0	16720	5906.370131859328	0
0	16731	5910.579867871356	1
0	16733	5912.421808688501	2
0	16738	5913.528698084274	1
0	16743	5914.197044167407	0
0	16761	5917.99553519903	1
0	16764	5919.316374897013	0
0	16774	5923.274394199804	1
0	16780	5924.193803101163	2
0	16782	5924.405601418998	3
0	16784	5925.918041112753	4
0	16786	5929.912897131926	5
0	16787	5931.150612303584	4
0	16792	5931.918582892825	3
0	16798	5931.990525772313	4
0	16800	5934.609644709411	5
0	16802	5935.222385001127	6
0	16804	5935.595149586018	7
0	16807	5937.326655004744	6
0	16814	5938.025932982581	7
0	16816	5941.583179107925	6
0	16822	5943.042268421328	5
0	16830	5944.769144693808	6
0	16831	5945.173152417646	5
0	16836	5946.429408250116	4
0	16841	5947.373242954624	3
0	16848	5948.33470430855	4
0	16851	5948.526314101731	5
0	16852	5949.438564198597	4
0	16858	5951.813292620891	3
0	16863	5953.676680983872	2
0	16868	5955.522036182102	1
0	16876	5959.322769887804	2
0	16878	5963.218976032574	1
0	16884	5964.856025694332	2
0	16887	5964.997421506345	3
0	16890	5965.870564178722	4
0	16892	5967.438419902585	3
0	16898	5967.695678509058	2
0	16905	5969.00637532706	3
0	16906	5970.70527438204	2
0	16912	5971.723077043975	1
0	16919	5972.179200406319	2
0	16922	5972.482460184828	1
[...]
5	79867	28222.959783317602	3.003179139741
5	79889	28231.939537961638	7.51650854039
5	79894	28232.812807960324	8.050210138255
5	79901	28236.944530739473	8.769873115599
5	79924	28246.237222980265	8.02207151206
5	79930	28249.210862143158	5.240665932568
5	79985	28268.43873974004	10.718457378491
5	79990	28268.800700153627	9.608692498689
5	79997	28272.064020601645	11.083674255088
5	80006	28279.772151536107	17.830796565036
5	80011	28280.472643427482	17.851297019289
5	80022	28286.006432779855	23.209402337855
5	80031	28289.193560171718	25.374406340541
5	80037	28290.242120626714	24.593705386067
5	80042	28290.788269550757	5.416347571703
5	80048	28294.033761545717	5.538488432836
5	80053	28294.059800984647	5.164979552318
5	80088	28301.335213041822	5.459694393801
5	80094	28302.322061235789	6.415074393898
5	80100	28303.3184391522	3.89996197905
5	80126	28307.13772844531	1.59681328096
5	80132	28309.138799027713	2.512164224185
5	80160	28315.753436154878	6.147709310416
5	80166	28316.93426401819	7.281486041252
5	80176	28320.856310354155	10.860551077665
5	80189	28331.850013277412	19.526626105473
5	80197	28336.121214042178	23.593796958915
5	80207	28338.080535372595	24.309420597789
5	80212	28338.495647023323	14.073863354571
5	80220	28341.479489747768	12.147614132511
5	80233	28351.16767216822	20.292037621037
5	80242	28357.227248115451	25.582009153709
5	80253	28359.05345492519	25.006363117927
5	80259	28362.443438568955	25.299811416977
5	80266	28365.665965132905	16.135386267412
5	80271	28365.872035485399	14.20963314278
5	80282	28370.749690156138	12.08033739524
5	80287	28371.709120058034	8.857895012021
5	80294	28374.491462848863	6.794498215082
5	80299	28377.177845966898	4.373731067151
5	80334	28386.579783655701	2.412223553425
5	80339	28387.773236896667	1.468454210143
5	80359	28393.119961390042	3.438439468168
5	80364	28395.01442006519	3.958115665245
5	80372	28402.162031110446	10.699007492305
5	80389	28406.324452313467	3.803190829225
5	80401	28412.750166384394	6.975940556998
5	80408	28415.291640512583	7.607439419065
5	80414	28417.95932060598	5.018463200104
5	80449	28428.301420087976	7.81893983192
5	80465	28435.107861563649	10.622809619523
5	80470	28435.640366996225	8.618214655318
5	80475	28435.658182384132	5.588261945305
5	80482	28438.374993295095	7.098359515916
5	80497	28451.845819660504	17.178139979239
5	80507	28454.274572743438	2.662283177796
5	80529	28463.883601387312	6.767664417754
5	80541	28466.155818699271	1.709461778834
5	80564	28471.363658222369	4.011542838256
5	80571	28473.925312345087	5.780768070141
5	80576	28474.033787198729	4.299690959559
5	80581	28474.091521944329	3.304632636519
5	80598	28477.704401506643	2.637387018383
5	80615	28487.390423096106	11.934443642701
5	80620	28488.882115834737	9.554667790765
5	80627	28490.504178797749	10.470968453183
5	80634	28493.703875422134	11.932668433034
5	80644	28495.406170412461	3.482145524775
5	80651	28498.374076703422	4.4565327613
5	80658	28502.21219238765	7.129153706677
5	80687	28521.396194648609	12.332411883403
5	80697	28527.706079440022	8.597834906953
5	80714	28533.203373513714	4.181783674595
5	80723	28534.060823423161	2.895951068003
5	80731	28538.220131963501	5.092325799171
5	80739	28539.529743482753	6.32414484412
5	80760	28545.819937203275	5.110268260107
5	80771	28552.85123157513	9.020440532379
5	80777	28554.629978918552	5.283789271882
5	80804	28562.094400962506	6.383808894066
5	80809	28563.033554288826	6.234523952544
5	80831	28572.193660653505	8.082613801835
5	80838	28572.809937925588	7.825410989339
5	80848	28576.925615973389	11.557996327869
5	80853	28577.706727178381	1.471921121327
5	80872	28582.718772614161	2.826171744352
5	80894	28592.926883974663	9.803856307317
5	80905	28597.622156699185	10.723711775901
5	80910	28597.702922939711	7.91199367865
5	80928	28606.863037834251	7.427966816082
5	80962	28611.57257581418	1.661960577489
5	80976	28623.479116712191	12.60957819495
5	80987	28625.382360229575	10.214934372114
5	80997	28628.118037206504	12.790983414608
5	81002	28628.575519977605	4.132239578097
5	81007	28629.363200149794	4.877889846944
5	81028	28643.072848483365	15.146430817317
5	81034	28643.650206635151	15.699478750516
5	81039	28643.655329346155	12.487085834271
5	81044	28645.411610288905	9.776481286308
5	81053	28649.435734349671	9.825302159628
5	81059	28651.428534932112	9.615536560762
5	81106	28662.174658169373	4.204860371023
5	81114	28664.661878047591	5.807309344114
5	81122	28667.187475823255	6.874938258026
5	81132	28669.038345555689	4.921119999703
5	81137	28669.204362970804	3.725416600476
5	81145	28672.776750336941	5.256403961589
5	81161	28679.511346590642	11.967221940255
5	81166	28679.824408102661	2.633479094042
5	81181	28685.984555407182	7.803674198727
5	81186	28686.784461132813	8.233655805049
5	81194	28687.054783777516	8.175765184294
5	81199	28687.51373404111	6.135969350583
5	81208	28688.39212374057	3.622582668388
5	81214	28693.06165761829	7.920931679572
5	81221	28694.976751847642	8.079263666292
5	81234	28705.623802258216	17.402145863513
5	81242	28709.465734361825	15.091067299272
5	81254	28713.332709254051	17.027000079981
5	81261	28715.694703249964	19.28604945789
5	81270	28718.884665835462	21.87750622922
5	81278	28721.833235470746	23.314288917817
5	81286	28725.720169536933	18.588454988472
5	81291	28726.378742509111	16.52474431269
5	81296	28726.441114281722	16.38195460691
5	81303	28728.94004102243	11.101998025549
5	81310	28731.984703448423	10.178534405853
5	81320	28733.548426286464	4.866646229156
5	81327	28735.735738149718	2.718428129911
5	81335	28738.761069068819	3.592944125036
5	81340	28739.249642638836	1.90118317388
5	81356	28743.671101057317	3.804190004063
5	81364	28746.51146159827	4.477427013641
5	81381	28754.288756293257	1.64595645229
5	81397	28760.411500982326	4.718622739373
5	81404	28760.646064147904	1.756573341371
5	81412	28763.377872223517	2.963417061317
5	81422	28767.401088590662	6.425060380519
5	81431	28770.489187046353	6.205487497705
5	81439	28771.743748480806	2.901697900942
5	81446	28772.210101445535	1.539811712052
5	81457	28774.975735440224	2.980245607732
5	81464	28777.843785193844	5.127296905033
5	81471	28779.617439300357	5.079007314765
5	81480	28781.195463026224	6.56982381593
5	81487	28787.400375114637	8.558234211779
5	81495	28789.907522499406	9.583814401635
5	81502	28792.24981060845	11.903793927757
5	81513	28799.317273632041	16.124474396934
5	81522	28802.634006320752	13.645434004568
5	81530	28807.564408723385	14.922414225334
5	81537	28811.337212810566	17.696311394131
5	81542	28813.767471431182	17.256537548667
5	81566	28822.088275595166	2.041605610421
5	81599	28835.978033700186	6.542094049035
5	81606	28838.949721577562	7.630027243146
5	81612	28840.022440173392	7.9180324735
5	81641	28853.411380362323	6.801779587561
5	81647	28854.175940099295	3.934525192631
5	81655	28855.297511369575	3.193224903703
5	81705	28863.95705725499	3.783569534736
5	81712	28864.329166999917	2.954823166628
5	81727	28874.7879158703	11.483427383141
5	81736	28875.425605081277	6.003297049344
5	81741	28876.992974703179	7.546246260881
5	81746	28879.177357757096	4.255394551419
5	81765	28886.184126874059	5.407988756768
5	81773	28888.558772518421	6.216906343761
5	81783	28890.557864019902	7.594799260414
5	81790	28892.782918650174	5.137137530529
5	81819	28903.829474473337	7.245907017588
5	81832	28905.76527624966	8.367203370219
5	81837	28906.798077370857	8.07558770929
5	81844	28906.889011699148	7.800767841368
5	81859	28911.078271126106	11.602193574315
5	81870	28913.102533751659	11.780462312614
5	81875	28914.992700811969	13.220774046088
5	81883	28920.088947623386	13.22540950074
5	81888	28920.941840847708	11.600805300446
5	81894	28924.843033367532	13.34268770427
5	81903	28927.410627768081	15.548432054926
5	81923	28935.658916694128	22.606912767227
5	81933	28939.142139546479	19.552087581449
5	81938	28939.744845872679	8.803711713216
5	81948	28941.320977413212	7.037310470145
5	81963	28944.471314777212	9.350518861152
5	81973	28946.413346191453	8.85913870616
5	81987	28950.766420488959	11.000970736336
5	81993	28952.626047479824	11.392422550562
5	81999	28955.072745276876	12.360265671915
5	82009	28958.159196746609	14.851466771078
5	82014	28959.886743109919	15.766251252795
5	82019	28959.937366669548	15.024532709386
5	82027	28961.283741385123	13.196356192086
5	82032	28961.515504414834	11.686427233533
5	82038	28965.717438470002	8.730132212488
5	82043	28966.64071440872	6.195052664791
5	82086	28992.093061246235	17.736884218276
5	82100	29000.95162718777	26.577169774166
5	82106	29001.405276936502	22.771770751069
5	82116	29003.547340524642	22.301450968991
5	82134	29011.710815498991	23.217546316757
5	82149	29020.926416382266	29.515599616747
5	82160	29026.439703005608	29.232529165515
5	82165	29026.711724852852	24.240034394964
5	82177	29036.830110181564	28.845293200122
5	82183	29037.76034614062	27.688676493775
5	82188	29038.927992925818	27.206667145276
5	82203	29043.597706747481	29.815402789365
5	82209	29044.382472583353	28.090747084668
5	82214	29044.811360611766	25.258622759397
5	82219	29045.215757028869	12.744735116342
5	82224	29045.662434859862	5.976210658271
5	82232	29049.451568115065	6.174306411867
5	82281	29064.796130071832	2.829666851006
5	82296	29070.255381518795	4.916519354818
5	82301	29070.624883776067	0.695447422858
5	82317	29075.513626083957	4.4672808752
5	82323	29075.879602752506	2.792633829492
5	82353	29084.867193759275	8.182653350552
5	82361	29085.148482963405	6.182758985719
5	82367	29085.489372383067	3.226730589342
5	82372	29085.498358428612	1.874371926896
5	82377	29085.711533138026	0.745069243659
5	82398	29093.229089143078	5.503608423615
5	82403	29093.990314871139	4.58338081893
5	82410	29095.387981346412	4.93981139876
5	82446	29105.98881562498	3.564801529042
5	82455	29107.008426024912	1.069262314692
5	82462	29108.463311329478	2.393171913603
5	82473	29112.502317361301	5.673618274075
5	82486	29124.071664760141	14.295664355357
5	82491	29124.400965921378	14.345641985733
5	82500	29124.704667300427	10.65496292407
5	82506	29126.247525829041	4.387582389882
5	82522	29129.052567472562	1.375836296569
5	82551	29137.564871194006	5.558450827945
5	82558	29139.493162856103	2.844614601572
5	82567	29140.706203085485	1.415223420304
5	82603	29159.341471758909	16.106517950982
5	82609	29160.185022654684	14.992474298617
5	82631	29170.452617062214	24.536056706568
5	82637	29171.746374744601	24.134167327319
5	82647	29174.645507131331	25.689672965005
5	82652	29174.961863162255	13.024869746633
5	82659	29176.090173537083	13.677417049504
5	82666	29183.288202892968	11.142681759731
5	82674	29184.992006313496	11.372129436999
5	82682	29186.644916646025	2.127520340018
5	82696	29191.569485033116	5.102204757275
5	82702	29195.074884566193	6.897680923213
5	82707	29195.080081562598	6.704371982055
5	82723	29204.076625037283	1.507230414251
5	82746	29209.425181419906	5.170628024483
5	82758	29216.234583582647	8.902492126768
5	82764	29218.429069044279	10.299678960818
5	82769	29218.624696359696	8.833850235604
5	82794	29230.545272609395	10.332396953845
5	82799	29230.614742651847	9.809706323337
5	82809	29231.793323793399	10.178400289137
5	82818	29235.137426661496	3.486957670259
5	82832	29243.298533476293	7.015177543103
5	82845	29246.430334112554	2.918280331763
5	82866	29258.520542043404	9.146628686685
5	82871	29260.649144159894	5.585664397149
5	82899	29265.766750451958	2.737878921416
5	82904	29265.830957603705	0.217508284487
5	82933	29270.283474490048	2.421980321633
5	82949	29278.015162157324	5.104001589806
5	82956	29281.933110408363	5.596716586955
5	82968	29284.862377512228	8.098033298363
5	82974	29286.784396486044	3.352420825988
5	82995	29294.764980363625	6.712431887428
5	83009	29303.440958391817	12.608841287228
5	83023	29311.604292449084	17.619562121329
5	83030	29314.571685016495	19.921743397954
5	83047	29319.034743587505	22.464740348566
5	83058	29333.13869097782	32.005565641931
5	83064	29334.673907650936	33.433279207196
5	83071	29336.616021276015	33.563876430318
5	83083	29338.867698776056	35.034708044402
5	83091	29340.594096317261	29.133426847942
5	83101	29341.289496956387	26.684916476222
5	83107	29343.973821129781	29.320030590271
5	83114	29344.150375442653	27.053919382904
5	83125	29349.999783498952	32.243564416993
5	83137	29358.490071911894	40.654522764097
5	83144	29359.41312331655	34.020160677219
5	83149	29361.939094822815	35.325466305808
5	83154	29362.191558119936	34.553575269037
5	83165	29363.538665284137	26.315170110273
5	83177	29372.197403303803	32.147199353152
5	83184	29374.878777552173	33.940977282171
5	83189	29376.51778305056	35.487717107882
5	83198	29384.45588955754	39.230727477313
5	83203	29384.843581210403	38.035098807927
5	83216	29390.320838036704	35.527443799962
5	83221	29391.901630695468	36.01927592618
5	83229	29392.756402160654	30.314863692851
5	83234	29395.846612407127	32.93799244493
5	83246	29400.850826046639	33.537968908981
5	83252	29402.16170146517	32.49798020145
5	83263	29407.339477930724	34.949489745547
5	83270	29408.681198115077	29.056277177371
5	83275	29409.201747103659	20.552164085709
5	83283	29413.797697355295	24.282335045792
5	83292	29416.39906712324	19.825178406216
5	83300	29417.032946517868	17.17482830942
5	83305	29417.953227891825	17.600977304858
5	83313	29418.262618527184	15.806945829918
5	83322	29419.95746522243	13.136238973778
5	83335	29428.80503371495	17.029117585947
5	83340	29429.205529900114	14.637834934752
5	83345	29431.139146306299	12.994972754432
5	83358	29441.285559265513	21.518406607784
5	83363	29441.303243474689	15.950184061285
5	83368	29441.427777144192	13.305382715004
5	83373	29443.935311949809	11.58062623978
5	83398	29449.749632308825	1.972090078626
5	83410	29454.40504148342	0.396690370195
5	83428	29457.250313569967	2.479823462163
5	83443	29462.714266996467	4.59078866652
5	83449	29466.492650658649	4.082763379657
5	83468	29474.061141435468	6.14182514926
5	83476	29477.635081294941	5.197385493899
5	83487	29480.965831453407	8.288535185359
5	83493	29481.0691919246	2.405382468768
5	83498	29481.367331045269	1.996835438607
5	83515	29487.986701882665	6.338828738693
5	83521	29490.293106726307	8.474559595402
5	83526	29491.381659801636	8.850512273518
5	83545	29496.868186772389	4.883085374466
5	83558	29502.165645518659	3.493904190322
5	83577	29514.344999666862	4.848973220581
5	83584	29518.866351409926	9.104179327024
5	83602	29529.205468983158	8.198553394346
5	83618	29535.46825681918	5.029698539006
5	83624	29537.920036712446	6.671945617078
5	83671	29549.730735585786	3.390341800675
5	83676	29549.768886034432	0.991071894174
5	83683	29552.368467000355	2.970268047005
5	83698	29561.656211041689	4.863303615682
5	83722	29567.958612017275	0.39290323933
5	83756	29583.747774420285	9.239247057502
5	83763	29585.438082736187	10.464735597144
5	83808	29600.819878156611	8.691534362968
5	83814	29601.318401349976	6.01885025891
5	83819	29602.129720176337	6.184913454404
5	83828	29603.378653018992	6.698837371838
5	83833	29604.565679047976	6.482222826961
5	83841	29607.902530486822	7.410666641124
5	83848	29615.253253296927	12.899307394159
5	83862	29617.979822193777	10.287994014563
5	83870	29620.849645105863	3.824634665779
5	83884	29625.621779717857	7.686659658232
5	83891	29626.308313810932	7.113994742
5	83900	29631.402215215441	9.348803795683
5	83905	29632.036018350564	8.427820334481
5	83910	29633.417538146627	8.019597184084
5	83922	29636.218449272919	10.024294846149
5	83943	29648.532193272579	14.166817488162
5	83950	29649.386788692217	14.514872513577
5	83959	29651.239821755411	15.12246744143
5	83964	29651.545555910085	11.668648076418
5	83974	29653.863039171182	13.49421457065
5	83985	29662.820541143549	21.881545632795
5	83991	29664.827967637146	19.59337610777
5	83997	29665.511379866659	15.621945100633
5	84004	29668.396730468976	16.639950849615
5	84009	29669.407623858574	10.778332107533
5	84014	29669.71945061383	8.519773842068
5	84023	29673.591498412954	11.331192566089
5	84031	29677.73781557547	4.51044620561
5	84044	29683.618974741701	7.872476356032
5	84057	29688.080875778107	5.796863929822
5	84062	29689.179271116882	6.344942347873
5	84075	29697.499454626188	13.159571964092
5	84087	29699.626721806055	12.927688999998
5	84092	29699.633625418268	6.377688578146
5	84100	29705.202318264016	8.621214545529
5	84109	29706.945255498209	9.083722815186
5	84117	29708.809616634757	7.304175408439
5	84125	29709.567205163152	1.10961279137
5	84130	29709.816633264987	0.863457466502
5	84152	29712.179720179813	1.078898332421
5	84167	29716.316296823363	2.998391840287
5	84201	29727.47098428736	12.440810156977
5	84210	29732.411771425395	15.918290566024
5	84219	29734.78113144023	18.097145944713
5	84230	29738.765789836677	21.248229031332
5	84237	29739.513378286061	18.937046961685
5	84243	29740.308589185215	18.896776028324
5	84256	29744.983469257271	22.789672118239
5	84265	29746.958229312762	23.46534976047
5	84272	29748.452342406604	21.614104320599
5	84278	29748.5327208867	16.309846260983
5	84284	29752.199988290947	18.165124613987
5	84289	29752.982154973883	18.719591600195
5	84294	29753.252812852472	9.502215953803
5	84310	29759.326540302922	14.008203809965
5	84315	29759.536196541875	5.555330592946
5	84330	29766.066120902048	8.621851301904
5	84345	29773.177736223688	15.616212012284
5	84350	29773.221056151094	14.216496576467
5	84355	29773.540287422158	14.002017045315
5	84362	29774.908493868113	12.946845216092
5	84373	29779.724379964535	15.281910244007
5	84379	29781.225522651877	15.701622740417
5	84386	29785.940044091602	19.962850599252
5	84391	29787.478831876605	21.382616701339
5	84398	29788.576111450202	14.050298294104
5	84404	29790.328896449181	14.74606345704
5	84415	29792.848721410062	14.013516719124
5	84420	29794.687247590632	13.327860235925
5	84427	29797.111695947451	5.856918941733
5	84471	29814.318573225547	14.797091677495
5	84477	29815.489504929303	11.961062076041
5	84482	29816.172206235121	12.181362932574
5	84489	29817.446061507401	5.154912583057
5	84500	29821.291823142555	3.856941737517
5	84509	29827.195574027044	9.190724883362
5	84514	29827.496340032839	8.90554347986
5	84521	29831.993016286711	11.079221325501
5	84529	29834.455178349745	12.698907116051
5	84534	29835.538983923083	6.988489673549
5	84541	29838.426256555986	5.203127588194
5	84548	29839.901456144813	2.464146864545
5	84568	29843.721991610531	3.10560526657
5	84577	29845.027672766718	3.633000613499
5	84585	29846.727869264446	4.79441107824
5	84592	29847.935537470083	4.227979407951
5	84599	29849.448913614453	1.730843202575
5	84620	29861.365793004527	10.627020305781
5	84628	29866.134175706787	13.349766610575
5	84636	29867.923293434788	13.640777757804
5	84646	29870.753054142178	12.691363834354
5	84652	29871.234412945484	10.614808797082
5	84657	29871.273705445929	7.624761878275
5	84662	29871.530457940634	2.203010239357
5	84672	29876.868502216308	7.340214248221
5	84681	29879.585477957775	4.240945704356
5	84688	29880.863041130144	2.778339045703
5	84693	29880.899921786599	1.146406329986
5	84722	29886.616133527992	4.335679884971
5	84732	29889.956776877706	3.768797634658
5	84745	29893.977586888301	7.092446572872
5	84756	29898.949820692355	7.091421470583
5	84764	29901.899235611057	7.968122379354
5	84772	29902.794326802494	6.693464721683
5	84778	29905.664385350918	7.918786674701
5	84783	29905.696913089617	4.413461138288
5	84819	29917.851395592247	0.740579399546
5	84837	29925.141954161118	6.371189242203
5	84847	29927.560797903155	7.604869298807
5	84882	29939.390071257915	8.335658271961
5	84888	29940.257771231396	8.963780303546
5	84896	29948.637096504071	15.270790163897
5	84903	29949.673477525802	15.963703899156
5	84911	29953.672857666574	19.358469594084
5	84926	29959.704714647996	25.187795732013
5	84932	29961.963377920777	25.999856437098
5	84937	29961.98423769531	22.937173373874
5	84944	29964.50977976879	18.361312433144
5	84951	29965.993698149063	16.542676147131
5	84956	29966.921876692665	17.133227502918
5	84963	29968.141188375368	13.81581979203
5	84968	29971.496248192841	14.799668706856
5	84973	29971.706226107416	13.749915716167
5	84979	29975.251025877377	16.304539536325
5	85011	29982.001552108474	5.296330930857
5	85019	29984.706554418462	3.560857808951
5	85036	29995.064023116086	9.849034970773

